<?xml version="1.0" encoding="UTF-8"?>

<!-- generated on 2025-02-12 16:24:46 by Eclipse SUMO netconvert Version 1.22.0
<netconvertConfiguration xmlns:xsi="http://www.w3.org/2001/XMLSchema-instance" xsi:noNamespaceSchemaLocation="http://sumo.dlr.de/xsd/netconvertConfiguration.xsd">

    <input>
        <type-files value="${SUMO_HOME}\data\typemap\osmNetconvert.typ.xml"/>
        <osm-files value="osm_bbox.osm.xml.gz"/>
    </input>

    <output>
        <output-file value="osm.net.xml.gz"/>
        <output.street-names value="true"/>
        <output.original-names value="true"/>
    </output>

    <projection>
        <proj.utm value="true"/>
    </projection>

    <processing>
        <geometry.remove value="true"/>
        <roundabouts.guess value="true"/>
    </processing>

    <tls_building>
        <tls.discard-simple value="true"/>
        <tls.join value="true"/>
        <tls.guess-signals value="true"/>
        <tls.default-type value="actuated"/>
    </tls_building>

    <ramp_guessing>
        <ramps.guess value="true"/>
    </ramp_guessing>

    <junctions>
        <junctions.join value="true"/>
        <junctions.corner-detail value="5"/>
    </junctions>

</netconvertConfiguration>
-->

<net version="1.20" junctionCornerDetail="5" limitTurnSpeed="5.50" xmlns:xsi="http://www.w3.org/2001/XMLSchema-instance" xsi:noNamespaceSchemaLocation="http://sumo.dlr.de/xsd/net_file.xsd">

    <location netOffset="-450827.25,-5413152.83" convBoundary="0.00,0.00,494.08,229.60" origBoundary="2.329452,48.869406,2.336175,48.871468" projParameter="+proj=utm +zone=31 +ellps=WGS84 +datum=WGS84 +units=m +no_defs"/>

    <type id="highway.living_street" priority="2" numLanes="1" speed="2.78" disallow="tram rail_urban rail rail_electric rail_fast ship container cable_car subway aircraft wheelchair scooter drone" oneway="0"/>
    <type id="highway.pedestrian" priority="1" numLanes="1" speed="2.78" allow="pedestrian" oneway="1" width="2.00"/>
    <type id="highway.primary" priority="12" numLanes="2" speed="27.78" disallow="tram rail_urban rail rail_electric rail_fast ship container cable_car subway aircraft wheelchair scooter drone" oneway="0"/>
    <type id="highway.residential" priority="3" numLanes="1" speed="13.89" disallow="tram rail_urban rail rail_electric rail_fast ship container cable_car subway aircraft wheelchair scooter drone" oneway="0"/>
    <type id="highway.secondary" priority="11" numLanes="1" speed="27.78" disallow="tram rail_urban rail rail_electric rail_fast ship container cable_car subway aircraft wheelchair scooter drone" oneway="0"/>
    <type id="highway.tertiary" priority="10" numLanes="1" speed="22.22" disallow="tram rail_urban rail rail_electric rail_fast ship container cable_car subway aircraft wheelchair scooter drone" oneway="0"/>

    <edge id=":1232684892_0" function="internal">
        <lane id=":1232684892_0_0" index="0" disallow="tram rail_urban rail rail_electric rail_fast ship container cable_car subway aircraft wheelchair scooter drone" speed="3.65" length="4.67" shape="338.65,206.29 337.56,207.23 336.68,207.40 336.02,206.80 335.57,205.43"/>
    </edge>
    <edge id=":2200327141_0" function="internal">
        <lane id=":2200327141_0_0" index="0" disallow="tram rail_urban rail rail_electric rail_fast ship container cable_car subway aircraft wheelchair scooter drone" speed="3.65" length="4.67" shape="144.76,13.19 144.75,11.75 145.19,10.97 146.08,10.86 147.41,11.40"/>
    </edge>
    <edge id=":25207345_0" function="internal">
        <lane id=":25207345_0_0" index="0" allow="bus bicycle" speed="8.33" length="11.27" shape="479.26,211.85 468.31,209.12"/>
        <lane id=":25207345_0_1" index="1" disallow="tram rail_urban rail rail_electric rail_fast ship container cable_car subway aircraft wheelchair scooter drone" speed="8.33" length="11.27" shape="480.02,208.74 469.09,206.02"/>
    </edge>
    <edge id=":25207345_2" function="internal">
        <lane id=":25207345_2_0" index="0" disallow="tram rail_urban rail rail_electric rail_fast ship container cable_car subway aircraft wheelchair scooter drone" speed="8.33" length="14.51" shape="480.02,208.74 478.12,207.49 476.99,204.88 476.62,200.88 477.01,195.52"/>
    </edge>
    <edge id=":25207345_3" function="internal">
        <lane id=":25207345_3_0" index="0" disallow="tram rail_urban rail rail_electric rail_fast ship container cable_car subway aircraft wheelchair scooter drone" speed="3.65" length="4.67" shape="480.02,208.74 479.04,207.68 478.84,206.81 479.42,206.12 480.78,205.63"/>
    </edge>
    <edge id=":25207345_4" function="internal">
        <lane id=":25207345_4_0" index="0" disallow="tram rail_urban rail rail_electric rail_fast ship container cable_car subway aircraft wheelchair scooter drone" speed="6.25" length="9.01" shape="470.65,199.81 473.16,200.08 475.06,199.45 476.34,197.93 477.01,195.52"/>
    </edge>
    <edge id=":25207345_5" function="internal">
        <lane id=":25207345_5_0" index="0" disallow="tram rail_urban rail rail_electric rail_fast ship container cable_car subway aircraft wheelchair scooter drone" speed="8.33" length="11.23" shape="470.65,199.81 481.54,202.52"/>
        <lane id=":25207345_5_1" index="1" disallow="tram rail_urban rail rail_electric rail_fast ship container cable_car subway aircraft wheelchair scooter drone" speed="8.33" length="11.23" shape="469.87,202.92 480.78,205.63"/>
    </edge>
    <edge id=":25207345_7" function="internal">
        <lane id=":25207345_7_0" index="0" disallow="tram rail_urban rail rail_electric rail_fast ship container cable_car subway aircraft wheelchair scooter drone" speed="3.65" length="4.67" shape="469.87,202.92 470.84,203.99 471.03,204.86 470.45,205.54 469.09,206.02"/>
    </edge>
    <edge id=":25272921_0" function="internal">
        <lane id=":25272921_0_0" index="0" disallow="tram rail_urban rail rail_electric rail_fast ship container cable_car subway aircraft wheelchair scooter drone" speed="6.42" length="8.48" shape="76.01,63.16 77.51,64.83 79.24,65.62 81.20,65.55 83.38,64.60"/>
    </edge>
    <edge id=":25272921_1" function="internal">
        <lane id=":25272921_1_0" index="0" disallow="tram rail_urban rail rail_electric rail_fast ship container cable_car subway aircraft wheelchair scooter drone" speed="8.33" length="10.75" shape="74.35,70.44 83.38,64.60"/>
    </edge>
    <edge id=":25272953_0" function="internal">
        <lane id=":25272953_0_0" index="0" disallow="tram rail_urban rail rail_electric rail_fast ship container cable_car subway aircraft wheelchair scooter drone" speed="4.17" length="1.30" shape="336.41,7.58 336.42,7.25 336.36,6.94 336.24,6.65 336.05,6.38"/>
    </edge>
    <edge id=":25273786_0" function="internal">
        <lane id=":25273786_0_0" index="0" disallow="tram rail_urban rail rail_electric rail_fast ship container cable_car subway aircraft wheelchair scooter drone" speed="7.36" length="11.70" shape="352.75,176.40 350.26,176.32 348.15,177.48 346.42,179.86 345.07,183.47"/>
    </edge>
    <edge id=":25273786_1" function="internal">
        <lane id=":25273786_1_0" index="0" allow="bus bicycle" speed="8.33" length="14.35" shape="352.75,176.40 338.86,172.80"/>
    </edge>
    <edge id=":25273786_2" function="internal">
        <lane id=":25273786_2_0" index="0" disallow="tram rail_urban rail rail_electric rail_fast ship container cable_car subway aircraft wheelchair scooter drone" speed="3.65" length="1.44" shape="352.75,176.40 351.79,175.33"/>
    </edge>
    <edge id=":25273786_13" function="internal">
        <lane id=":25273786_13_0" index="0" disallow="tram rail_urban rail rail_electric rail_fast ship container cable_car subway aircraft wheelchair scooter drone" speed="3.65" length="3.23" shape="351.79,175.33 351.60,174.45 352.19,173.78 353.55,173.30"/>
    </edge>
    <edge id=":25273786_3" function="internal">
        <lane id=":25273786_3_0" index="0" disallow="tram rail_urban rail rail_electric rail_fast ship container cable_car subway aircraft wheelchair scooter drone" speed="6.82" length="10.17" shape="349.07,163.02 348.83,165.51 349.64,167.53 351.48,169.10 354.35,170.21"/>
    </edge>
    <edge id=":25273786_4" function="internal">
        <lane id=":25273786_4_0" index="0" disallow="tram rail_urban rail rail_electric rail_fast ship container cable_car subway aircraft wheelchair scooter drone" speed="8.33" length="20.84" shape="349.07,163.02 345.07,183.47"/>
    </edge>
    <edge id=":25273786_5" function="internal">
        <lane id=":25273786_5_0" index="0" allow="bus bicycle" speed="8.33" length="15.79" shape="349.07,163.02 347.22,167.98 344.91,171.26 342.12,172.87 338.86,172.80"/>
    </edge>
    <edge id=":25273786_6" function="internal">
        <lane id=":25273786_6_0" index="0" disallow="tram rail_urban rail rail_electric rail_fast ship container cable_car subway aircraft wheelchair scooter drone" speed="8.33" length="14.57" shape="339.66,169.71 343.00,170.05 346.15,169.73 349.74,169.53 354.35,170.21"/>
        <lane id=":25273786_6_1" index="1" disallow="tram rail_urban rail rail_electric rail_fast ship container cable_car subway aircraft wheelchair scooter drone" speed="8.33" length="14.57" shape="339.66,169.71 353.55,173.30"/>
    </edge>
    <edge id=":25273786_8" function="internal">
        <lane id=":25273786_8_0" index="0" disallow="tram rail_urban rail rail_electric rail_fast ship container cable_car subway aircraft wheelchair scooter drone" speed="8.33" length="3.73" shape="339.66,169.71 343.03,171.31"/>
    </edge>
    <edge id=":25273786_9" function="internal">
        <lane id=":25273786_9_0" index="0" allow="bus bicycle" speed="3.65" length="1.44" shape="339.66,169.71 340.62,170.78"/>
    </edge>
    <edge id=":25273786_14" function="internal">
        <lane id=":25273786_14_0" index="0" disallow="tram rail_urban rail rail_electric rail_fast ship container cable_car subway aircraft wheelchair scooter drone" speed="8.33" length="13.08" shape="343.03,171.31 343.22,171.40 345.31,174.26 345.92,178.29 345.07,183.47"/>
    </edge>
    <edge id=":25273786_15" function="internal">
        <lane id=":25273786_15_0" index="0" allow="bus bicycle" speed="3.65" length="3.23" shape="340.62,170.78 340.81,171.66 340.22,172.33 338.86,172.80"/>
    </edge>
    <edge id=":25273786_10" function="internal">
        <lane id=":25273786_10_0" index="0" allow="bus bicycle" speed="7.26" length="11.63" shape="341.98,182.62 342.66,178.86 342.36,175.96 341.09,173.95 338.86,172.80"/>
    </edge>
    <edge id=":25273786_11" function="internal">
        <lane id=":25273786_11_0" index="0" disallow="tram rail_urban rail rail_electric rail_fast ship container cable_car subway aircraft wheelchair scooter drone" speed="8.33" length="16.76" shape="341.98,182.62 343.89,177.73 346.46,174.55 349.68,173.07 353.55,173.30"/>
    </edge>
    <edge id=":25273786_12" function="internal">
        <lane id=":25273786_12_0" index="0" disallow="tram rail_urban rail rail_electric rail_fast ship container cable_car subway aircraft wheelchair scooter drone" speed="3.65" length="1.44" shape="341.98,182.62 343.07,181.68"/>
    </edge>
    <edge id=":25273786_16" function="internal">
        <lane id=":25273786_16_0" index="0" disallow="tram rail_urban rail rail_electric rail_fast ship container cable_car subway aircraft wheelchair scooter drone" speed="3.65" length="3.23" shape="343.07,181.68 343.95,181.51 344.61,182.10 345.07,183.47"/>
    </edge>
    <edge id=":25273838_0" function="internal">
        <lane id=":25273838_0_0" index="0" disallow="tram rail_urban rail rail_electric rail_fast ship container cable_car subway aircraft wheelchair scooter drone" speed="8.33" length="7.90" shape="353.40,140.46 357.75,147.06"/>
    </edge>
    <edge id=":25273838_1" function="internal">
        <lane id=":25273838_1_0" index="0" disallow="tram rail_urban rail rail_electric rail_fast ship container cable_car subway aircraft wheelchair scooter drone" speed="8.33" length="7.46" shape="353.40,140.46 353.92,141.74 354.09,143.38 353.90,145.38 353.36,147.74"/>
    </edge>
    <edge id=":25273842_0" function="internal">
        <lane id=":25273842_0_0" index="0" disallow="tram rail_urban rail rail_electric rail_fast ship container cable_car subway aircraft wheelchair scooter drone" speed="6.50" length="9.04" shape="393.26,90.80 392.89,88.34 391.83,86.60 390.07,85.57 387.61,85.25"/>
    </edge>
    <edge id=":25273842_1" function="internal">
        <lane id=":25273842_1_0" index="0" disallow="tram rail_urban rail rail_electric rail_fast ship container cable_car subway aircraft wheelchair scooter drone" speed="5.56" length="11.14" shape="398.76,85.26 387.61,85.25"/>
    </edge>
    <edge id=":25273843_0" function="internal">
        <lane id=":25273843_0_0" index="0" disallow="tram rail_urban rail rail_electric rail_fast ship container cable_car subway aircraft wheelchair scooter drone" speed="6.41" length="8.79" shape="477.45,90.05 477.10,87.76 476.04,86.12 474.27,85.15 471.79,84.84"/>
    </edge>
    <edge id=":25273843_1" function="internal">
        <lane id=":25273843_1_0" index="0" disallow="tram rail_urban rail rail_electric rail_fast ship container cable_car subway aircraft wheelchair scooter drone" speed="8.33" length="10.47" shape="477.45,90.05 477.03,79.58"/>
    </edge>
    <edge id=":398768_0" function="internal">
        <lane id=":398768_0_0" index="0" allow="bus bicycle" speed="8.33" length="15.74" shape="233.26,145.89 230.36,146.28 227.83,148.25 225.66,151.81 223.87,156.95"/>
    </edge>
    <edge id=":398768_1" function="internal">
        <lane id=":398768_1_0" index="0" allow="bus bicycle" speed="8.33" length="13.70" shape="233.26,145.89 230.04,146.48 227.26,148.34 224.06,150.14 219.61,150.57"/>
        <lane id=":398768_1_1" index="1" allow="bus bicycle" speed="8.33" length="13.70" shape="233.26,145.89 230.03,145.97 227.26,146.72 224.18,147.43 220.03,147.40"/>
        <lane id=":398768_1_2" index="2" allow="bus bicycle" speed="8.33" length="13.70" shape="233.26,145.89 220.44,144.22"/>
    </edge>
    <edge id=":398768_4" function="internal">
        <lane id=":398768_4_0" index="0" allow="bus bicycle" speed="3.65" length="4.26" shape="233.26,145.89 232.17,144.94 231.87,144.10 232.37,143.35 233.30,142.90"/>
    </edge>
    <edge id=":398768_12" function="internal">
        <lane id=":398768_12_0" index="0" allow="bus bicycle" speed="3.65" length="0.41" shape="233.30,142.90 233.67,142.72"/>
    </edge>
    <edge id=":398768_5" function="internal">
        <lane id=":398768_5_0" index="0" disallow="tram rail_urban rail rail_electric rail_fast ship container cable_car subway aircraft wheelchair scooter drone" speed="8.33" length="17.18" shape="231.66,127.35 230.26,133.78 230.13,138.48 231.26,141.46 233.67,142.72"/>
    </edge>
    <edge id=":398768_6" function="internal">
        <lane id=":398768_6_0" index="0" disallow="tram rail_urban rail rail_electric rail_fast ship container cable_car subway aircraft wheelchair scooter drone" speed="8.33" length="30.61" shape="231.66,127.35 223.87,156.95"/>
    </edge>
    <edge id=":398768_7" function="internal">
        <lane id=":398768_7_0" index="0" disallow="pedestrian tram rail_urban rail rail_electric rail_fast ship container cable_car subway aircraft wheelchair scooter drone" speed="8.33" length="24.24" shape="231.66,127.35 228.75,136.41 225.85,142.76 222.94,146.43 220.03,147.40"/>
        <lane id=":398768_7_1" index="1" disallow="pedestrian tram rail_urban rail rail_electric rail_fast ship container cable_car subway aircraft wheelchair scooter drone" speed="8.33" length="21.48" shape="231.66,127.35 229.11,135.04 226.38,140.41 223.50,143.47 220.44,144.22"/>
    </edge>
    <edge id=":398768_9" function="internal">
        <lane id=":398768_9_0" index="0" disallow="pedestrian tram rail_urban rail rail_electric rail_fast ship container cable_car subway aircraft wheelchair scooter drone" speed="8.33" length="16.72" shape="222.09,131.53 226.57,133.63 229.01,137.27 230.89,140.84 233.67,142.72"/>
    </edge>
    <edge id=":398768_10" function="internal">
        <lane id=":398768_10_0" index="0" disallow="pedestrian tram rail_urban rail rail_electric rail_fast ship container cable_car subway aircraft wheelchair scooter drone" speed="8.33" length="9.78" shape="221.68,134.70 225.28,136.86 226.48,141.66 226.42,142.29"/>
    </edge>
    <edge id=":398768_11" function="internal">
        <lane id=":398768_11_0" index="0" disallow="pedestrian tram rail_urban rail rail_electric rail_fast ship container cable_car subway aircraft wheelchair scooter drone" speed="3.65" length="1.44" shape="220.85,141.05 221.94,142.00"/>
    </edge>
    <edge id=":398768_13" function="internal">
        <lane id=":398768_13_0" index="0" disallow="pedestrian tram rail_urban rail rail_electric rail_fast ship container cable_car subway aircraft wheelchair scooter drone" speed="8.33" length="14.91" shape="226.42,142.29 225.83,148.54 223.87,156.95"/>
    </edge>
    <edge id=":398768_14" function="internal">
        <lane id=":398768_14_0" index="0" disallow="pedestrian tram rail_urban rail rail_electric rail_fast ship container cable_car subway aircraft wheelchair scooter drone" speed="3.65" length="3.23" shape="221.94,142.00 222.23,142.84 221.73,143.58 220.44,144.22"/>
    </edge>
    <edge id=":398775_0" function="internal">
        <lane id=":398775_0_0" index="0" disallow="tram rail_urban rail rail_electric rail_fast ship container cable_car subway aircraft wheelchair scooter drone" speed="6.59" length="7.30" shape="204.75,84.26 206.35,85.35 208.00,85.80 209.71,85.62 211.46,84.81"/>
    </edge>
    <edge id=":398775_1" function="internal">
        <lane id=":398775_1_0" index="0" disallow="tram rail_urban rail rail_electric rail_fast ship container cable_car subway aircraft wheelchair scooter drone" speed="8.33" length="9.35" shape="204.75,84.26 206.39,86.48 207.05,88.55 207.89,90.28 210.07,91.49"/>
    </edge>
    <edge id=":398775_2" function="internal">
        <lane id=":398775_2_0" index="0" disallow="tram rail_urban rail rail_electric rail_fast ship container cable_car subway aircraft wheelchair scooter drone" speed="3.65" length="1.44" shape="202.62,86.65 202.99,88.05"/>
    </edge>
    <edge id=":398775_7" function="internal">
        <lane id=":398775_7_0" index="0" disallow="tram rail_urban rail rail_electric rail_fast ship container cable_car subway aircraft wheelchair scooter drone" speed="3.65" length="3.23" shape="202.99,88.05 202.75,88.91 201.92,89.24 200.50,89.05"/>
    </edge>
    <edge id=":398775_3" function="internal">
        <lane id=":398775_3_0" index="0" disallow="tram rail_urban rail rail_electric rail_fast ship container cable_car subway aircraft wheelchair scooter drone" speed="7.87" length="8.51" shape="201.51,98.90 201.65,96.99 201.18,95.10 200.09,93.25 198.37,91.44"/>
        <lane id=":398775_3_1" index="1" disallow="tram rail_urban rail rail_electric rail_fast ship container cable_car subway aircraft wheelchair scooter drone" speed="8.33" length="10.32" shape="201.51,98.90 202.10,95.51 202.13,92.74 201.59,90.58 200.50,89.05"/>
    </edge>
    <edge id=":398775_5" function="internal">
        <lane id=":398775_5_0" index="0" disallow="tram rail_urban rail rail_electric rail_fast ship container cable_car subway aircraft wheelchair scooter drone" speed="8.33" length="17.55" shape="201.51,98.90 202.96,95.02 205.33,91.03 208.29,87.45 211.46,84.81"/>
    </edge>
    <edge id=":398775_6" function="internal">
        <lane id=":398775_6_0" index="0" disallow="tram rail_urban rail rail_electric rail_fast ship container cable_car subway aircraft wheelchair scooter drone" speed="7.56" length="12.90" shape="201.51,98.90 202.86,95.00 204.73,92.46 207.14,91.29 210.07,91.49"/>
    </edge>
    <edge id=":398776_0" function="internal">
        <lane id=":398776_0_0" index="0" disallow="pedestrian tram rail_urban rail rail_electric rail_fast ship container cable_car subway aircraft wheelchair scooter drone" speed="8.33" length="24.17" shape="201.61,146.64 194.53,144.35 189.62,142.05 185.08,139.86 179.11,137.94"/>
        <lane id=":398776_0_1" index="1" disallow="pedestrian tram rail_urban rail rail_electric rail_fast ship container cable_car subway aircraft wheelchair scooter drone" speed="8.33" length="24.17" shape="202.35,143.52 195.27,141.24 190.37,138.94 185.83,136.75 179.85,134.83"/>
    </edge>
    <edge id=":398776_2" function="internal">
        <lane id=":398776_2_0" index="0" disallow="pedestrian tram rail_urban rail rail_electric rail_fast ship container cable_car subway aircraft wheelchair scooter drone" speed="8.33" length="3.14" shape="203.10,140.41 200.29,138.99"/>
    </edge>
    <edge id=":398776_3" function="internal">
        <lane id=":398776_3_0" index="0" disallow="pedestrian tram rail_urban rail rail_electric rail_fast ship container cable_car subway aircraft wheelchair scooter drone" speed="3.65" length="1.44" shape="203.10,140.41 202.12,139.35"/>
    </edge>
    <edge id=":398776_15" function="internal">
        <lane id=":398776_15_0" index="0" disallow="pedestrian tram rail_urban rail rail_electric rail_fast ship container cable_car subway aircraft wheelchair scooter drone" speed="8.33" length="21.26" shape="200.29,138.99 198.41,138.04 195.72,133.82 195.01,127.74 196.29,119.82"/>
    </edge>
    <edge id=":398776_16" function="internal">
        <lane id=":398776_16_0" index="0" disallow="pedestrian tram rail_urban rail rail_electric rail_fast ship container cable_car subway aircraft wheelchair scooter drone" speed="3.65" length="3.23" shape="202.12,139.35 201.91,138.48 202.49,137.80 203.84,137.30"/>
    </edge>
    <edge id=":398776_4" function="internal">
        <lane id=":398776_4_0" index="0" disallow="tram rail_urban rail rail_electric rail_fast ship container cable_car subway aircraft wheelchair scooter drone" speed="8.33" length="17.24" shape="182.09,125.49 187.48,126.22 191.64,125.51 194.58,123.38 196.29,119.82"/>
    </edge>
    <edge id=":398776_5" function="internal">
        <lane id=":398776_5_0" index="0" disallow="pedestrian tram rail_urban rail rail_electric rail_fast ship container cable_car subway aircraft wheelchair scooter drone" speed="8.33" length="24.12" shape="182.09,125.49 189.14,126.64 194.10,126.67 199.05,126.72 206.08,127.96"/>
        <lane id=":398776_5_1" index="1" disallow="pedestrian tram rail_urban rail rail_electric rail_fast ship container cable_car subway aircraft wheelchair scooter drone" speed="8.33" length="24.12" shape="181.34,128.60 188.39,129.76 193.35,129.78 198.30,129.83 205.33,131.08"/>
        <lane id=":398776_5_2" index="2" disallow="pedestrian tram rail_urban rail rail_electric rail_fast ship container cable_car subway aircraft wheelchair scooter drone" speed="8.33" length="24.12" shape="180.60,131.72 187.65,132.87 192.61,132.89 197.56,132.94 204.59,134.19"/>
        <lane id=":398776_5_3" index="3" disallow="pedestrian tram rail_urban rail rail_electric rail_fast ship container cable_car subway aircraft wheelchair scooter drone" speed="8.33" length="24.12" shape="180.60,131.72 203.84,137.30"/>
    </edge>
    <edge id=":398776_9" function="internal">
        <lane id=":398776_9_0" index="0" disallow="tram rail_urban rail rail_electric rail_fast ship container cable_car subway aircraft wheelchair scooter drone" speed="3.65" length="1.44" shape="180.60,131.72 181.58,132.77"/>
    </edge>
    <edge id=":398776_17" function="internal">
        <lane id=":398776_17_0" index="0" disallow="tram rail_urban rail rail_electric rail_fast ship container cable_car subway aircraft wheelchair scooter drone" speed="3.65" length="3.23" shape="181.58,132.77 181.78,133.65 181.21,134.33 179.85,134.83"/>
    </edge>
    <edge id=":398776_10" function="internal">
        <lane id=":398776_10_0" index="0" allow="bus bicycle" speed="7.11" length="11.27" shape="182.40,147.30 183.02,143.70 182.68,140.94 181.38,139.02 179.11,137.94"/>
    </edge>
    <edge id=":398776_11" function="internal">
        <lane id=":398776_11_0" index="0" allow="bus bicycle" speed="8.33" length="29.27" shape="182.40,147.30 185.59,139.91 190.35,135.26 196.68,133.35 204.59,134.19"/>
    </edge>
    <edge id=":398776_12" function="internal">
        <lane id=":398776_12_0" index="0" disallow="tram rail_urban rail rail_electric rail_fast ship container cable_car subway aircraft wheelchair scooter drone" speed="8.33" length="16.52" shape="185.49,148.14 186.29,143.10 185.62,139.20 183.47,136.44 179.85,134.83"/>
    </edge>
    <edge id=":398776_13" function="internal">
        <lane id=":398776_13_0" index="0" disallow="tram rail_urban rail rail_electric rail_fast ship container cable_car subway aircraft wheelchair scooter drone" speed="8.33" length="30.17" shape="188.58,148.99 196.29,119.82"/>
    </edge>
    <edge id=":398776_14" function="internal">
        <lane id=":398776_14_0" index="0" disallow="pedestrian tram rail_urban rail rail_electric rail_fast ship container cable_car subway aircraft wheelchair scooter drone" speed="8.33" length="17.35" shape="194.75,150.68 196.82,144.34 199.03,140.00 201.37,137.65 203.84,137.30"/>
    </edge>
    <edge id=":398787_0" function="internal">
        <lane id=":398787_0_0" index="0" allow="bus bicycle" speed="8.33" length="11.82" shape="187.18,189.49 183.16,188.47 179.91,188.08 177.43,188.30 175.71,189.15"/>
    </edge>
    <edge id=":398787_1" function="internal">
        <lane id=":398787_1_0" index="0" disallow="tram rail_urban rail rail_electric rail_fast ship container cable_car subway aircraft wheelchair scooter drone" speed="7.95" length="4.81" shape="187.18,189.49 182.71,187.72"/>
        <lane id=":398787_1_1" index="1" disallow="tram rail_urban rail rail_electric rail_fast ship container cable_car subway aircraft wheelchair scooter drone" speed="7.18" length="3.62" shape="187.18,189.49 184.05,188.13 183.90,187.98"/>
        <lane id=":398787_1_2" index="2" disallow="tram rail_urban rail rail_electric rail_fast ship container cable_car subway aircraft wheelchair scooter drone" speed="6.40" length="2.26" shape="187.18,189.49 185.39,188.54 185.27,188.34"/>
    </edge>
    <edge id=":398787_4" function="internal">
        <lane id=":398787_4_0" index="0" disallow="tram rail_urban rail rail_electric rail_fast ship container cable_car subway aircraft wheelchair scooter drone" speed="3.70" length="1.66" shape="187.18,189.49 185.95,188.63 185.88,188.48"/>
    </edge>
    <edge id=":398787_12" function="internal">
        <lane id=":398787_12_0" index="0" disallow="tram rail_urban rail rail_electric rail_fast ship container cable_car subway aircraft wheelchair scooter drone" speed="7.95" length="9.38" shape="182.71,187.72 179.80,185.58 178.46,183.05 178.67,180.15"/>
        <lane id=":398787_12_1" index="0" disallow="tram rail_urban rail rail_electric rail_fast ship container cable_car subway aircraft wheelchair scooter drone" speed="7.18" length="7.78" shape="183.90,187.98 182.10,186.28 181.32,183.95 181.71,181.13"/>
        <lane id=":398787_12_2" index="0" disallow="tram rail_urban rail rail_electric rail_fast ship container cable_car subway aircraft wheelchair scooter drone" speed="6.40" length="6.56" shape="185.27,188.34 184.39,186.99 184.18,184.85 184.76,182.12"/>
    </edge>
    <edge id=":398787_13" function="internal">
        <lane id=":398787_13_0" index="0" disallow="tram rail_urban rail rail_electric rail_fast ship container cable_car subway aircraft wheelchair scooter drone" speed="3.70" length="3.19" shape="185.88,188.48 185.55,187.79 185.99,186.97 187.25,186.17"/>
    </edge>
    <edge id=":398787_5" function="internal">
        <lane id=":398787_5_0" index="0" allow="bus bicycle" speed="8.33" length="9.01" shape="171.51,184.33 172.53,182.92 172.57,181.60 172.34,180.11 172.58,178.19"/>
        <lane id=":398787_5_1" index="1" disallow="tram rail_urban rail rail_electric rail_fast ship container cable_car subway aircraft wheelchair scooter drone" speed="8.33" length="9.01" shape="171.51,184.33 173.06,183.05 174.12,182.11 174.90,181.00 175.62,179.17"/>
        <lane id=":398787_5_2" index="2" disallow="tram rail_urban rail rail_electric rail_fast ship container cable_car subway aircraft wheelchair scooter drone" speed="8.33" length="9.01" shape="171.51,184.33 173.77,183.08 175.78,182.70 177.45,182.09 178.67,180.15"/>
        <lane id=":398787_5_3" index="3" disallow="tram rail_urban rail rail_electric rail_fast ship container cable_car subway aircraft wheelchair scooter drone" speed="8.33" length="9.01" shape="173.61,186.74 176.23,185.16 178.49,184.48 180.33,183.53 181.71,181.13"/>
        <lane id=":398787_5_4" index="4" disallow="tram rail_urban rail rail_electric rail_fast ship container cable_car subway aircraft wheelchair scooter drone" speed="8.33" length="9.01" shape="173.61,186.74 177.01,185.15 180.20,185.09 182.88,184.70 184.76,182.12"/>
    </edge>
    <edge id=":398787_10" function="internal">
        <lane id=":398787_10_0" index="0" disallow="tram rail_urban rail rail_electric rail_fast ship container cable_car subway aircraft wheelchair scooter drone" speed="8.33" length="14.17" shape="173.61,186.74 175.96,185.40 179.01,184.86 182.78,185.11 187.25,186.17"/>
    </edge>
    <edge id=":398787_11" function="internal">
        <lane id=":398787_11_0" index="0" allow="bus bicycle" speed="3.65" length="1.44" shape="173.61,186.74 175.04,186.55"/>
    </edge>
    <edge id=":398787_14" function="internal">
        <lane id=":398787_14_0" index="0" allow="bus bicycle" speed="3.65" length="3.23" shape="175.04,186.55 175.87,186.89 176.09,187.76 175.71,189.15"/>
    </edge>
    <edge id=":398788_0" function="internal">
        <lane id=":398788_0_0" index="0" disallow="tram rail_urban rail rail_electric rail_fast ship container cable_car subway aircraft wheelchair scooter drone" speed="8.33" length="8.75" shape="214.21,190.57 213.50,193.05 213.24,194.83 213.45,196.61 214.15,199.08"/>
    </edge>
    <edge id=":398788_1" function="internal">