<?xml version="1.0" encoding="UTF-8"?>

<!-- generated on 2025-02-25 19:07:08.654805 by osmWebWizard.py v1_22_0+0002-63e50f52594
<configuration>
    <net-file value="C:\Program Files\rl_project\2025-02-25-19-05-44\osm.net.xml.gz"/>
    <output-trip-file value="C:\Program Files\rl_project\2025-02-25-19-05-44\osm.passenger.trips.xml"/>
    <route-file value="C:\Program Files\rl_project\2025-02-25-19-05-44\osm.passenger.rou.xml"/>
    <prefix value="veh"/>
    <trip-attributes value="departLane=&quot;best&quot;"/>
    <fringe-start-attributes value="departSpeed=&quot;max&quot;"/>
    <vehicle-class value="passenger"/>
    <lanes value="True"/>
    <fringe-factor value="5"/>
    <allow-fringe.min-length value="1000.0"/>
    <via-edge-types value="highway.motorway,highway.motorway_link,highway.trunk_link,highway.primary_link,highway.secondary_link,highway.tertiary_link"/>
    <min-distance value="300.0"/>
    <min-distance.fringe value="10.0"/>
    <remove-loops value="True"/>
    <validate value="True"/>
    <insertion-density value="300.0"/>
</configuration>
-->

<!-- generated on 2025-02-25 19:07:07 by Eclipse SUMO duarouter Version 1.22.0
<duarouterConfiguration xmlns:xsi="http://www.w3.org/2001/XMLSchema-instance" xsi:noNamespaceSchemaLocation="http://sumo.dlr.de/xsd/duarouterConfiguration.xsd">

    <input>
        <net-file value="C:\Program Files\rl_project\2025-02-25-19-05-44\osm.net.xml.gz"/>
        <route-files value="C:\Program Files\rl_project\2025-02-25-19-05-44\osm.passenger.trips.xml"/>
    </input>

    <output>
        <output-file value="C:\Program Files\rl_project\2025-02-25-19-05-44\osm.passenger.trips.xml.tmp"/>
        <alternatives-output value="NUL"/>
        <write-trips value="true"/>
    </output>

    <processing>
        <remove-loops value="true"/>
    </processing>

    <time>
        <begin value="0.0"/>
        <end value="3600.0"/>
    </time>

    <report>
        <no-warnings value="true"/>
        <ignore-errors value="true"/>
        <no-step-log value="true"/>
    </report>

</duarouterConfiguration>
-->

<routes xmlns:xsi="http://www.w3.org/2001/XMLSchema-instance" xsi:noNamespaceSchemaLocation="http://sumo.dlr.de/xsd/routes_file.xsd">
    <vType id="veh_passenger" vClass="passenger"/>
    <trip id="veh0" type="veh_passenger" depart="0.00" departLane="best" from="23852053#1" to="-111833185#0"/>
    <trip id="veh1" type="veh_passenger" depart="0.38" departLane="best" from="465376254#0" to="1305423286#2"/>
    <trip id="veh2" type="veh_passenger" depart="0.76" departLane="best" from="1133457765#0" to="169999355#1"/>
    <trip id="veh3" type="veh_passenger" depart="1.13" departLane="best" departSpeed="max" from="-437325047" to="156364556#1"/>
    <trip id="veh4" type="veh_passenger" depart="1.51" departLane="best" from="-1121012037#1" to="43231842#0"/>
    <trip id="veh5" type="veh_passenger" depart="1.89" departLane="best" from="-24243101" to="190447768#1"/>
    <trip id="veh6" type="veh_passenger" depart="2.27" departLane="best" from="-4412868#1" to="202156994#0"/>
    <trip id="veh7" type="veh_passenger" depart="2.65" departLane="best" from="4067932" to="1101961674#3"/>
    <trip id="veh8" type="veh_passenger" depart="3.02" departLane="best" from="380240681#0" to="305093247#0"/>
    <trip id="veh10" type="veh_passenger" depart="3.78" departLane="best" from="-705182549" to="1119935327#1"/>
    <trip id="veh11" type="veh_passenger" depart="4.16" departLane="best" departSpeed="max" from="-1323456346#1" to="155186522#0"/>
    <trip id="veh12" type="veh_passenger" depart="4.54" departLane="best" from="4610479#2" to="23013165"/>
    <trip id="veh13" type="veh_passenger" depart="4.91" departLane="best" from="380240681#3" to="310176513#2"/>
    <trip id="veh14" type="veh_passenger" depart="5.29" departLane="best" from="168940071#6" to="783042668"/>
    <trip id="veh15" type="veh_passenger" depart="5.67" departLane="best" departSpeed="max" from="112128419#1" to="194962375#1"/>
    <trip id="veh16" type="veh_passenger" depart="6.05" departLane="best" departSpeed="max" from="4610351#0" to="23812656#3"/>
    <trip id="veh17" type="veh_passenger" depart="6.43" departLane="best" from="4611726#1" to="22972195#2"/>
    <trip id="veh19" type="veh_passenger" depart="7.18" departLane="best" from="-4610480#1" to="1077923225#0"/>
    <trip id="veh20" type="veh_passenger" depart="7.56" departLane="best" departSpeed="max" from="66071379#1" to="-492340367#3"/>
    <trip id="veh21" type="veh_passenger" depart="7.94" departLane="best" from="155186522#0" to="100405009#2"/>
    <trip id="veh22" type="veh_passenger" depart="8.32" departLane="best" departSpeed="max" from="112128419#1" to="-4610375#0"/>
    <trip id="veh23" type="veh_passenger" depart="8.69" departLane="best" from="-541295974#0" to="606078065"/>
    <trip id="veh24" type="veh_passenger" depart="9.07" departLane="best" from="24243092#1" to="-23121445#3"/>
    <trip id="veh25" type="veh_passenger" depart="9.45" departLane="best" from="-25294728#0" to="310176513#2"/>
    <trip id="veh26" type="veh_passenger" depart="9.83" departLane="best" departSpeed="max" from="-23813206" to="-1127595983"/>
    <trip id="veh28" type="veh_passenger" depart="10.59" departLane="best" departSpeed="max" from="176043794#0" to="-292429062#2"/>
    <trip id="veh29" type="veh_passenger" depart="10.96" departLane="best" from="4610476#2" to="339201217"/>
    <trip id="veh30" type="veh_passenger" depart="11.34" departLane="best" departSpeed="max" from="4610524#1" to="1121012037#1"/>
    <trip id="veh31" type="veh_passenger" depart="11.72" departLane="best" from="1077923225#0" to="82658674#1"/>
    <trip id="veh32" type="veh_passenger" depart="12.10" departLane="best" departSpeed="max" from="-43231842#2" to="606078071#0"/>
    <trip id="veh33" type="veh_passenger" depart="12.48" departLane="best" from="54048862#2" to="1217865061#0"/>
    <trip id="veh34" type="veh_passenger" depart="12.85" departLane="best" from="534588621#1" to="-6228081#1"/>
    <trip id="veh35" type="veh_passenger" depart="13.23" departLane="best" from="188386313#1" to="-751595928#1"/>
    <trip id="veh36" type="veh_passenger" depart="13.61" departLane="best" from="-902316106#0" to="158023913#1"/>
    <trip id="veh37" type="veh_passenger" depart="13.99" departLane="best" departSpeed="max" from="-1323456346#1" to="-1127595983"/>
    <trip id="veh39" type="veh_passenger" depart="14.74" departLane="best" from="340498988#0" to="1151064405#1"/>
    <trip id="veh40" type="veh_passenger" depart="15.12" departLane="best" from="-1155226001#0" to="1132678575#2"/>
    <trip id="veh41" type="veh_passenger" depart="15.50" departLane="best" from="82654055" to="4611707#1"/>
    <trip id="veh42" type="veh_passenger" depart="15.88" departLane="best" from="-1102369940#0" to="30721660#4"/>
    <trip id="veh44" type="veh_passenger" depart="16.63" departLane="best" from="-541295974#0" to="24913267#1"/>
    <trip id="veh47" type="veh_passenger" depart="17.77" departLane="best" from="1332751227#0" to="-31313667#1"/>
    <trip id="veh48" type="veh_passenger" depart="18.15" departLane="best" from="534588621#1" to="4612981#1"/>
    <trip id="veh49" type="veh_passenger" depart="18.52" departLane="best" from="202156994#0" to="-23809670#0"/>
    <trip id="veh50" type="veh_passenger" depart="18.90" departLane="best" departSpeed="max" from="316092515" to="188386313#1"/>
    <trip id="veh51" type="veh_passenger" depart="19.28" departLane="best" from="339201219" to="169999355#1"/>
    <trip id="veh52" type="veh_passenger" depart="19.66" departLane="best" from="-1040930907#3" to="1116360926#1"/>
    <trip id="veh53" type="veh_passenger" depart="20.04" departLane="best" from="-1114798610#0" to="60333309#1"/>
    <trip id="veh57" type="veh_passenger" depart="21.55" departLane="best" from="-1305423286#1" to="1332751227#0"/>
    <trip id="veh58" type="veh_passenger" depart="21.93" departLane="best" from="1173516145#1" to="33301683"/>
    <trip id="veh59" type="veh_passenger" depart="22.30" departLane="best" from="327518240#2" to="-194962375#0"/>
    <trip id="veh60" type="veh_passenger" depart="22.68" departLane="best" from="-1198409426#1" to="194073677#4"/>
    <trip id="veh61" type="veh_passenger" depart="23.06" departLane="best" from="534588621#1" to="46140376#0"/>
    <trip id="veh62" type="veh_passenger" depart="23.44" departLane="best" from="1133457766#1" to="-4610472#2"/>
    <trip id="veh63" type="veh_passenger" depart="23.82" departLane="best" from="168942727#1" to="310176513#2"/>
    <trip id="veh64" type="veh_passenger" depart="24.19" departLane="best" from="-339201177#3" to="111251382#1"/>
    <trip id="veh65" type="veh_passenger" depart="24.57" departLane="best" from="882389494#1" to="251884680#1"/>
    <trip id="veh66" type="veh_passenger" depart="24.95" departLane="best" from="1151064388#1" to="168940071#2"/>
    <trip id="veh67" type="veh_passenger" depart="25.33" departLane="best" departSpeed="max" from="-169660686" to="-4612970#1"/>
    <trip id="veh70" type="veh_passenger" depart="26.46" departLane="best" departSpeed="max" from="4610524#1" to="54048862#2"/>
    <trip id="veh71" type="veh_passenger" depart="26.84" departLane="best" departSpeed="max" from="-43231842#2" to="-195397539"/>
    <trip id="veh72" type="veh_passenger" depart="27.22" departLane="best" from="606078065" to="195401013#2"/>
    <trip id="veh73" type="veh_passenger" depart="27.60" departLane="best" from="1175552853#2" to="340498976#5"/>
    <trip id="veh74" type="veh_passenger" depart="27.98" departLane="best" from="380240681#3" to="-370359204#1"/>
    <trip id="veh75" type="veh_passenger" depart="28.35" departLane="best" from="-137630045#1" to="1152640374#1"/>
    <trip id="veh76" type="veh_passenger" depart="28.73" departLane="best" from="831659093#1" to="155186522#1"/>
    <trip id="veh77" type="veh_passenger" depart="29.11" departLane="best" from="1127592486#1" to="1119935543#0"/>
    <trip id="veh78" type="veh_passenger" depart="29.49" departLane="best" departSpeed="max" from="-312176585" to="1195359141"/>
    <trip id="veh79" type="veh_passenger" depart="29.87" departLane="best" from="1133457765#0" to="100405009#2"/>
    <trip id="veh80" type="veh_passenger" depart="30.24" departLane="best" departSpeed="max" from="-474362272" to="55741054"/>
    <trip id="veh81" type="veh_passenger" depart="30.62" departLane="best" from="1151064396" to="1132678575#2"/>
    <trip id="veh82" type="veh_passenger" depart="31.00" departLane="best" from="171826985#2" to="-1133992736#0"/>
    <trip id="veh83" type="veh_passenger" depart="31.38" departLane="best" from="950222545" to="4610362#0"/>
    <trip id="veh84" type="veh_passenger" depart="31.76" departLane="best" from="-4610480#1" to="-28251222#0"/>
    <trip id="veh86" type="veh_passenger" depart="32.51" departLane="best" from="1126246695#1" to="-1151064396"/>
    <trip id="veh87" type="veh_passenger" depart="32.89" departLane="best" departSpeed="max" from="112128419#1" to="82658671#1"/>
    <trip id="veh88" type="veh_passenger" depart="33.27" departLane="best" from="534588621#1" to="340498976#5"/>
    <trip id="veh90" type="veh_passenger" depart="34.02" departLane="best" from="-705182549" to="882389494#1"/>
    <trip id="veh91" type="veh_passenger" depart="34.40" departLane="best" departSpeed="max" from="176043794#0" to="30721660#1"/>
    <trip id="veh92" type="veh_passenger" depart="34.78" departLane="best" from="23121445#5" to="1100889498"/>
    <trip id="veh95" type="veh_passenger" depart="35.91" departLane="best" departSpeed="max" from="-1151064411" to="202156991"/>
    <trip id="veh96" type="veh_passenger" depart="36.29" departLane="best" from="1173516144#1" to="705182548"/>
    <trip id="veh98" type="veh_passenger" depart="37.05" departLane="best" from="-4611693#1" to="-194069450#1"/>
    <trip id="veh100" type="veh_passenger" depart="37.80" departLane="best" from="1133457765#0" to="202156991"/>
    <trip id="veh101" type="veh_passenger" depart="38.18" departLane="best" from="156364570#2" to="60333309#1"/>
    <trip id="veh102" type="veh_passenger" depart="38.56" departLane="best" from="35578576#3" to="30720544#0"/>
    <trip id="veh103" type="veh_passenger" depart="38.94" departLane="best" from="-4612970#0" to="1133992735#0"/>
    <trip id="veh105" type="veh_passenger" depart="39.69" departLane="best" from="1079495669#1" to="-31313667#1"/>
    <trip id="veh106" type="veh_passenger" depart="40.07" departLane="best" from="-902316106#1" to="882389494#1"/>
    <trip id="veh107" type="veh_passenger" depart="40.45" departLane="best" from="-120675240#2" to="4610480#1"/>
    <trip id="veh108" type="veh_passenger" depart="40.83" departLane="best" from="-534588621#1" to="60333309#1"/>
    <trip id="veh110" type="veh_passenger" depart="41.58" departLane="best" departSpeed="max" from="112128419#1" to="24243101"/>
    <trip id="veh111" type="veh_passenger" depart="41.96" departLane="best" from="4610362#2" to="305093247#2"/>
    <trip id="veh112" type="veh_passenger" depart="42.34" departLane="best" from="202157002#0" to="82658674#1"/>
    <trip id="veh113" type="veh_passenger" depart="42.72" departLane="best" from="24913519#1" to="1101961674#4"/>
    <trip id="veh114" type="veh_passenger" depart="43.10" departLane="best" from="42103020#2" to="1101961674#3"/>
    <trip id="veh115" type="veh_passenger" depart="43.47" departLane="best" from="28251222#0" to="606078065"/>
    <trip id="veh116" type="veh_passenger" depart="43.85" departLane="best" from="-195397541#2" to="-168942727#2"/>
    <trip id="veh117" type="veh_passenger" depart="44.23" departLane="best" from="-158023913#1" to="194962375#2"/>
    <trip id="veh118" type="veh_passenger" depart="44.61" departLane="best" departSpeed="max" from="-55741054" to="23013165"/>
    <trip id="veh119" type="veh_passenger" depart="44.99" departLane="best" from="30721662#0" to="-4610374#0"/>
    <trip id="veh120" type="veh_passenger" depart="45.37" departLane="best" from="-234463931#0" to="61583423#1"/>
    <trip id="veh122" type="veh_passenger" depart="46.12" departLane="best" from="1133457766#1" to="100405009#2"/>
    <trip id="veh123" type="veh_passenger" depart="46.50" departLane="best" from="-1100824590#1" to="339201177#2"/>
    <trip id="veh124" type="veh_passenger" depart="46.88" departLane="best" from="-23812656#2" to="-750204886#0"/>
    <trip id="veh125" type="veh_passenger" depart="47.26" departLane="best" from="31313667#0" to="194962375#1"/>
    <trip id="veh126" type="veh_passenger" depart="47.63" departLane="best" from="1144362247" to="1101961735#1"/>
    <trip id="veh127" type="veh_passenger" depart="48.01" departLane="best" departSpeed="max" from="-120675240#4" to="465376254#3"/>
    <trip id="veh128" type="veh_passenger" depart="48.39" departLane="best" from="507023458#1" to="194073677#0"/>
    <trip id="veh129" type="veh_passenger" depart="48.77" departLane="best" departSpeed="max" from="4610374#0" to="202156991"/>
    <trip id="veh130" type="veh_passenger" depart="49.15" departLane="best" from="-222328410" to="-194069450#1"/>
    <trip id="veh133" type="veh_passenger" depart="50.28" departLane="best" from="490365295#0" to="-4610375#0"/>
    <trip id="veh134" type="veh_passenger" depart="50.66" departLane="best" departSpeed="max" from="-474362272" to="-15971189"/>
    <trip id="veh135" type="veh_passenger" depart="51.04" departLane="best" departSpeed="max" from="1127596842" to="23852053#2"/>
    <trip id="veh136" type="veh_passenger" depart="51.41" departLane="best" from="23121445#5" to="60333309#1"/>
    <trip id="veh137" type="veh_passenger" depart="51.79" departLane="best" from="4067932" to="465376254#0"/>
    <trip id="veh139" type="veh_passenger" depart="52.55" departLane="best" from="-1110526068" to="60333309#1"/>
    <trip id="veh140" type="veh_passenger" depart="52.93" departLane="best" from="35578576#3" to="1132678575#2"/>
    <trip id="veh141" type="veh_passenger" depart="53.30" departLane="best" from="4067932" to="82658671#2"/>
    <trip id="veh142" type="veh_passenger" depart="53.68" departLane="best" from="340498976#9" to="168940071#3"/>
    <trip id="veh144" type="veh_passenger" depart="54.44" departLane="best" from="4610351#0" to="42103020#0"/>
    <trip id="veh145" type="veh_passenger" depart="54.82" departLane="best" from="1158584613" to="1102369940#1"/>
    <trip id="veh147" type="veh_passenger" depart="55.57" departLane="best" from="1119854969#1" to="-387892378"/>
    <trip id="veh148" type="veh_passenger" depart="55.95" departLane="best" from="-1101961737" to="4612969#1"/>
    <trip id="veh149" type="veh_passenger" depart="56.33" departLane="best" from="23852053#3" to="1133992873#1"/>
    <trip id="veh150" type="veh_passenger" depart="56.71" departLane="best" from="82658671#2" to="4773465#2"/>
    <trip id="veh151" type="veh_passenger" depart="57.08" departLane="best" from="61583424#1" to="-168942727#2"/>
    <trip id="veh153" type="veh_passenger" depart="57.84" departLane="best" from="743631784#0" to="4612969#2"/>
    <trip id="veh154" type="veh_passenger" depart="58.22" departLane="best" from="-15971189" to="1155226001#1"/>
    <trip id="veh155" type="veh_passenger" depart="58.60" departLane="best" from="312357351#1" to="1113401735#1"/>
    <trip id="veh156" type="veh_passenger" depart="58.97" departLane="best" from="202156994#0" to="15971189"/>
    <trip id="veh157" type="veh_passenger" depart="59.35" departLane="best" from="-1040930907#4" to="60333309#0"/>
    <trip id="veh158" type="veh_passenger" depart="59.73" departLane="best" from="168940071#8" to="30721660#3"/>
    <trip id="veh159" type="veh_passenger" depart="60.11" departLane="best" from="31313667#1" to="289966845"/>
    <trip id="veh160" type="veh_passenger" depart="60.49" departLane="best" from="1121011269#2" to="1155226001#1"/>
    <trip id="veh161" type="veh_passenger" depart="60.86" departLane="best" from="28251222#1" to="1119837507#1"/>
    <trip id="veh162" type="veh_passenger" depart="61.24" departLane="best" from="1077923225#0" to="4610479#2"/>
    <trip id="veh165" type="veh_passenger" depart="62.38" departLane="best" from="1126465703#1" to="1100824590#1"/>
    <trip id="veh166" type="veh_passenger" depart="62.76" departLane="best" from="-176043794#1" to="-1151064402#1"/>
    <trip id="veh167" type="veh_passenger" depart="63.13" departLane="best" from="606078072#1" to="289967595"/>
    <trip id="veh168" type="veh_passenger" depart="63.51" departLane="best" from="507023458#0" to="234463931#1"/>
    <trip id="veh171" type="veh_passenger" depart="64.65" departLane="best" from="202156994#0" to="1267489731#0"/>
    <trip id="veh173" type="veh_passenger" depart="65.40" departLane="best" from="-4611693#0" to="-534588621#0"/>
    <trip id="veh175" type="veh_passenger" depart="66.16" departLane="best" from="-1305423286#0" to="168937986"/>
    <trip id="veh176" type="veh_passenger" depart="66.54" departLane="best" from="234463928#1" to="1119935327#1"/>
    <trip id="veh177" type="veh_passenger" depart="66.91" departLane="best" from="42103020#2" to="31313667#0"/>
    <trip id="veh178" type="veh_passenger" depart="67.29" departLane="best" from="-339201177#1" to="-111833185#0"/>
    <trip id="veh179" type="veh_passenger" depart="67.67" departLane="best" from="-465376254#3" to="1277784875#0"/>
    <trip id="veh180" type="veh_passenger" depart="68.05" departLane="best" from="4610524#0" to="-1173516144#0"/>
    <trip id="veh182" type="veh_passenger" depart="68.80" departLane="best" from="316746323#3" to="305093247#0"/>
    <trip id="veh183" type="veh_passenger" depart="69.18" departLane="best" from="1277784875#0" to="534588621#1"/>
    <trip id="veh184" type="veh_passenger" depart="69.56" departLane="best" departSpeed="max" from="313647501" to="339201177#1"/>
    <trip id="veh185" type="veh_passenger" depart="69.94" departLane="best" from="156364570#3" to="1151064410"/>
    <trip id="veh186" type="veh_passenger" depart="70.32" departLane="best" departSpeed="max" from="-25294729#1" to="705182548"/>
    <trip id="veh187" type="veh_passenger" depart="70.69" departLane="best" from="155186522#0" to="-1133992735#0"/>
    <trip id="veh188" type="veh_passenger" depart="71.07" departLane="best" departSpeed="max" from="-474362272" to="4610480#1"/>
    <trip id="veh190" type="veh_passenger" depart="71.83" departLane="best" from="606078072#1" to="82658674#1"/>
    <trip id="veh192" type="veh_passenger" depart="72.58" departLane="best" from="-465376254#2" to="234463928#0"/>
    <trip id="veh193" type="veh_passenger" depart="72.96" departLane="best" from="30721662#1" to="155186522#1"/>
    <trip id="veh194" type="veh_passenger" depart="73.34" departLane="best" departSpeed="max" from="4610351#0" to="194073677#2"/>
    <trip id="veh196" type="veh_passenger" depart="74.10" departLane="best" from="1198409426#0" to="427637455"/>
    <trip id="veh198" type="veh_passenger" depart="74.85" departLane="best" from="23121445#0" to="100405009#1"/>
    <trip id="veh199" type="veh_passenger" depart="75.23" departLane="best" departSpeed="max" from="-120675240#4" to="1040930907#3"/>
    <trip id="veh200" type="veh_passenger" depart="75.61" departLane="best" departSpeed="max" from="-55741054" to="1114798610#1"/>
    <trip id="veh201" type="veh_passenger" depart="75.99" departLane="best" from="168942727#1" to="-195411606"/>
    <trip id="veh204" type="veh_passenger" depart="77.12" departLane="best" departSpeed="max" from="1127596842" to="190447766#1"/>
    <trip id="veh205" type="veh_passenger" depart="77.50" departLane="best" from="1133457733" to="-4610374#0"/>
    <trip id="veh206" type="veh_passenger" depart="77.88" departLane="best" from="1133457765#0" to="541763974"/>
    <trip id="veh207" type="veh_passenger" depart="78.25" departLane="best" from="195397541#0" to="305093247#0"/>
    <trip id="veh208" type="veh_passenger" depart="78.63" departLane="best" from="4611699#0" to="33301683"/>
    <trip id="veh209" type="veh_passenger" depart="79.01" departLane="best" departSpeed="max" from="112128419#1" to="1101961674#2"/>
    <trip id="veh210" type="veh_passenger" depart="79.39" departLane="best" from="4611698" to="66071373#1"/>
    <trip id="veh211" type="veh_passenger" depart="79.77" departLane="best" from="169999355#1" to="22972219#0"/>
    <trip id="veh212" type="veh_passenger" depart="80.14" departLane="best" from="-4412868#1" to="4611693#1"/>
    <trip id="veh213" type="veh_passenger" depart="80.52" departLane="best" from="1151064386#0" to="-1119854969#1"/>
    <trip id="veh214" type="veh_passenger" depart="80.90" departLane="best" from="111251382#1" to="289967595"/>
    <trip id="veh215" type="veh_passenger" depart="81.28" departLane="best" from="1127592486#1" to="-28251222#0"/>
    <trip id="veh216" type="veh_passenger" depart="81.66" departLane="best" from="1126237668#1" to="195397561#3"/>
    <trip id="veh217" type="veh_passenger" depart="82.04" departLane="best" from="-1121012037#1" to="24913519#1"/>
    <trip id="veh218" type="veh_passenger" depart="82.41" departLane="best" from="-1151064397#3" to="1127592486#1"/>
    <trip id="veh219" type="veh_passenger" depart="82.79" departLane="best" departSpeed="max" from="-43231842#2" to="1117432853#2"/>
    <trip id="veh220" type="veh_passenger" depart="83.17" departLane="best" departSpeed="max" from="316092515" to="1127592486#1"/>
    <trip id="veh221" type="veh_passenger" depart="83.55" departLane="best" departSpeed="max" from="313647501" to="437325047"/>
    <trip id="veh223" type="veh_passenger" depart="84.30" departLane="best" from="-1114798610#0" to="188386313#1"/>
    <trip id="veh224" type="veh_passenger" depart="84.68" departLane="best" from="950222545" to="1119936840#1"/>
    <trip id="veh225" type="veh_passenger" depart="85.06" departLane="best" from="-24243107" to="340498976#10"/>
    <trip id="veh226" type="veh_passenger" depart="85.44" departLane="best" from="-24913267#2" to="-316746323#4"/>
    <trip id="veh227" type="veh_passenger" depart="85.82" departLane="best" from="66071379#1" to="1151064403"/>
    <trip id="veh228" type="veh_passenger" depart="86.19" departLane="best" from="-1114798610#1" to="-23809670#0"/>
    <trip id="veh229" type="veh_passenger" depart="86.57" departLane="best" from="-176043794#0" to="289966281"/>
    <trip id="veh232" type="veh_passenger" depart="87.71" departLane="best" from="-24243101" to="23121445#1"/>
    <trip id="veh233" type="veh_passenger" depart="88.08" departLane="best" departSpeed="max" from="313647501" to="-168942727#1"/>
    <trip id="veh234" type="veh_passenger" depart="88.46" departLane="best" from="42103020#2" to="72157174#1"/>
    <trip id="veh235" type="veh_passenger" depart="88.84" departLane="best" from="-15971189" to="-111833185#0"/>
    <trip id="veh236" type="veh_passenger" depart="89.22" departLane="best" from="1040930907#4" to="289967595"/>
    <trip id="veh237" type="veh_passenger" depart="89.60" departLane="best" from="-705182551" to="1133992873#1"/>
    <trip id="veh238" type="veh_passenger" depart="89.97" departLane="best" from="155186522#0" to="339201177#3"/>
    <trip id="veh239" type="veh_passenger" depart="90.35" departLane="best" from="4610524#1" to="-202817674#5"/>
    <trip id="veh240" type="veh_passenger" depart="90.73" departLane="best" departSpeed="max" from="-169660686" to="82654059#1"/>
    <trip id="veh241" type="veh_passenger" depart="91.11" departLane="best" from="340498976#12" to="1119936840#1"/>
    <trip id="veh242" type="veh_passenger" depart="91.49" departLane="best" from="1144362247" to="1126244314#0"/>
    <trip id="veh243" type="veh_passenger" depart="91.86" departLane="best" from="137630045#0" to="1119936840#1"/>
    <trip id="veh244" type="veh_passenger" depart="92.24" departLane="best" from="156364570#2" to="705182548"/>
    <trip id="veh245" type="veh_passenger" depart="92.62" departLane="best" from="234463931#1" to="437325047"/>
    <trip id="veh247" type="veh_passenger" depart="93.38" departLane="best" from="312357351#3" to="72157174#1"/>
    <trip id="veh248" type="veh_passenger" depart="93.75" departLane="best" departSpeed="max" from="-55741054" to="38208961"/>
    <trip id="veh249" type="veh_passenger" depart="94.13" departLane="best" from="168940071#7" to="1323456346#1"/>
    <trip id="veh251" type="veh_passenger" depart="94.89" departLane="best" from="-541295976#2" to="4611693#1"/>
    <trip id="veh252" type="veh_passenger" depart="95.27" departLane="best" departSpeed="max" from="4610351#0" to="1305423286#2"/>
    <trip id="veh254" type="veh_passenger" depart="96.02" departLane="best" from="1170522567#0" to="-23121445#4"/>
    <trip id="veh255" type="veh_passenger" depart="96.40" departLane="best" departSpeed="max" from="112128419#1" to="-1119854969#1"/>
    <trip id="veh256" type="veh_passenger" depart="96.78" departLane="best" from="4610524#1" to="-330840125#1"/>
    <trip id="veh257" type="veh_passenger" depart="97.16" departLane="best" departSpeed="max" from="-43231842#2" to="344594961#1"/>
    <trip id="veh259" type="veh_passenger" depart="97.91" departLane="best" from="-1101961737" to="61583423#1"/>
    <trip id="veh260" type="veh_passenger" depart="98.29" departLane="best" from="-1305423286#1" to="30721660#3"/>
    <trip id="veh265" type="veh_passenger" depart="100.18" departLane="best" from="194962375#1" to="1269093895"/>
    <trip id="veh266" type="veh_passenger" depart="100.56" departLane="best" from="-168937986" to="1151064410"/>
    <trip id="veh267" type="veh_passenger" depart="100.94" departLane="best" departSpeed="max" from="313647501" to="1119837507#1"/>
    <trip id="veh270" type="veh_passenger" depart="102.07" departLane="best" from="-31313667#0" to="-194069450#1"/>
    <trip id="veh271" type="veh_passenger" depart="102.45" departLane="best" from="168940071#5" to="33301683"/>
    <trip id="veh273" type="veh_passenger" depart="103.21" departLane="best" from="1261128304" to="310176513#0"/>
    <trip id="veh274" type="veh_passenger" depart="103.58" departLane="best" from="82654059#0" to="168942727#1"/>
    <trip id="veh275" type="veh_passenger" depart="103.96" departLane="best" from="-705182549" to="-156364570#2"/>
    <trip id="veh276" type="veh_passenger" depart="104.34" departLane="best" from="-31313667#1" to="-461526153#0"/>
    <trip id="veh277" type="veh_passenger" depart="104.72" departLane="best" from="-292429062#2" to="1110526068"/>
    <trip id="veh278" type="veh_passenger" depart="105.10" departLane="best" from="168940071#3" to="100405009#1"/>
    <trip id="veh279" type="veh_passenger" depart="105.47" departLane="best" from="82654059#0" to="195105329"/>
    <trip id="veh281" type="veh_passenger" depart="106.23" departLane="best" from="4612973#1" to="137630045#0"/>
    <trip id="veh283" type="veh_passenger" depart="106.99" departLane="best" from="1173516144#0" to="1170522572#0"/>
    <trip id="veh285" type="veh_passenger" depart="107.74" departLane="best" from="284493291#0" to="1305423286#1"/>
    <trip id="veh286" type="veh_passenger" depart="108.12" departLane="best" from="-43231842#0" to="1133992873#1"/>
    <trip id="veh288" type="veh_passenger" depart="108.88" departLane="best" from="-1151064407#1" to="-23121445#5"/>
    <trip id="veh289" type="veh_passenger" depart="109.25" departLane="best" from="190447766#1" to="1102369938"/>
    <trip id="veh290" type="veh_passenger" depart="109.63" departLane="best" departSpeed="max" from="83517332#0" to="-194069450#1"/>
    <trip id="veh291" type="veh_passenger" depart="110.01" departLane="best" from="316746323#3" to="-23121445#0"/>
    <trip id="veh292" type="veh_passenger" depart="110.39" departLane="best" from="340498988#0" to="4612981#1"/>