<?xml version="1.0" encoding="UTF-8"?>

<!-- generated on 2025-02-25 19:07:10.965918 by osmWebWizard.py v1_22_0+0002-63e50f52594
<configuration>
    <net-file value="C:\Program Files\rl_project\2025-02-25-19-05-44\osm.net.xml.gz"/>
    <output-trip-file value="C:\Program Files\rl_project\2025-02-25-19-05-44\osm.truck.trips.xml"/>
    <route-file value="C:\Program Files\rl_project\2025-02-25-19-05-44\osm.truck.rou.xml"/>
    <prefix value="truck"/>
    <trip-attributes value="departLane=&quot;best&quot;"/>
    <fringe-start-attributes value="departSpeed=&quot;max&quot;"/>
    <vehicle-class value="truck"/>
    <fringe-factor value="5"/>
    <vclass value="truck"/>
    <via-edge-types value="highway.motorway,highway.motorway_link,highway.trunk_link,highway.primary_link,highway.secondary_link,highway.tertiary_link"/>
    <min-distance value="600.0"/>
    <min-distance.fringe value="10.0"/>
    <remove-loops value="True"/>
    <validate value="True"/>
    <insertion-density value="100.0"/>
</configuration>
-->

<!-- generated on 2025-02-25 19:07:10 by Eclipse SUMO duarouter Version 1.22.0
<duarouterConfiguration xmlns:xsi="http://www.w3.org/2001/XMLSchema-instance" xsi:noNamespaceSchemaLocation="http://sumo.dlr.de/xsd/duarouterConfiguration.xsd">

    <input>
        <net-file value="C:\Program Files\rl_project\2025-02-25-19-05-44\osm.net.xml.gz"/>
        <route-files value="C:\Program Files\rl_project\2025-02-25-19-05-44\osm.truck.trips.xml"/>
    </input>

    <output>
        <output-file value="C:\Program Files\rl_project\2025-02-25-19-05-44\osm.truck.trips.xml.tmp"/>
        <alternatives-output value="NUL"/>
        <write-trips value="true"/>
    </output>

    <processing>
        <remove-loops value="true"/>
    </processing>

    <time>
        <begin value="0.0"/>
        <end value="3600.0"/>
    </time>

    <report>
        <no-warnings value="true"/>
        <ignore-errors value="true"/>
        <no-step-log value="true"/>
    </report>

</duarouterConfiguration>
-->

<routes xmlns:xsi="http://www.w3.org/2001/XMLSchema-instance" xsi:noNamespaceSchemaLocation="http://sumo.dlr.de/xsd/routes_file.xsd">
    <vType id="truck_truck" vClass="truck"/>
    <trip id="truck0" type="truck_truck" depart="0.00" departLane="best" from="4610374#1" to="339201177#4"/>
    <trip id="truck2" type="truck_truck" depart="2.27" departLane="best" from="1121011269#1" to="-111833185#0"/>
    <trip id="truck3" type="truck_truck" depart="3.40" departLane="best" from="-292429062#3" to="188914559"/>
    <trip id="truck5" type="truck_truck" depart="5.67" departLane="best" from="340498982#0" to="25294729#1"/>
    <trip id="truck6" type="truck_truck" depart="6.80" departLane="best" departSpeed="max" from="68647306#0" to="1040930907#4"/>
    <trip id="truck7" type="truck_truck" depart="7.94" departLane="best" departSpeed="max" from="-120675240#4" to="-1173516145#0"/>
    <trip id="truck8" type="truck_truck" depart="9.07" departLane="best" departSpeed="max" from="4610374#0" to="194962375#2"/>
    <trip id="truck9" type="truck_truck" depart="10.21" departLane="best" from="340498988#0" to="305093247#2"/>
    <trip id="truck11" type="truck_truck" depart="12.48" departLane="best" from="1100889498" to="155186522#0"/>
    <trip id="truck12" type="truck_truck" depart="13.61" departLane="best" from="4610479#0" to="168942727#2"/>
    <trip id="truck13" type="truck_truck" depart="14.74" departLane="best" from="251884680#0" to="-1123151415#0"/>
    <trip id="truck15" type="truck_truck" depart="17.01" departLane="best" from="-1155226001#1" to="-43156728#1"/>
    <trip id="truck16" type="truck_truck" depart="18.15" departLane="best" departSpeed="max" from="66071379#1" to="465376254#3"/>
    <trip id="truck17" type="truck_truck" depart="19.28" departLane="best" departSpeed="max" from="-437325047" to="55741054"/>
    <trip id="truck18" type="truck_truck" depart="20.41" departLane="best" departSpeed="max" from="-202156991" to="305093247#2"/>
    <trip id="truck20" type="truck_truck" depart="22.68" departLane="best" departSpeed="max" from="4610351#0" to="33301683"/>
    <trip id="truck21" type="truck_truck" depart="23.82" departLane="best" departSpeed="max" from="-312176585" to="-111833185#1"/>
    <trip id="truck22" type="truck_truck" depart="24.95" departLane="best" departSpeed="max" from="-25294729#1" to="60333309#0"/>
    <trip id="truck23" type="truck_truck" depart="26.08" departLane="best" from="4611726#1" to="-750204886#0"/>
    <trip id="truck25" type="truck_truck" depart="28.35" departLane="best" from="-902316106#1" to="122820534#2"/>
    <trip id="truck26" type="truck_truck" depart="29.49" departLane="best" from="-120675240#3" to="-1123151415#0"/>
    <trip id="truck27" type="truck_truck" depart="30.62" departLane="best" from="-1323456346#0" to="22972195#2"/>
    <trip id="truck28" type="truck_truck" depart="31.76" departLane="best" from="339201217" to="1132678575#2"/>
    <trip id="truck29" type="truck_truck" depart="32.89" departLane="best" from="-1151064405#0" to="1119837993"/>
    <trip id="truck30" type="truck_truck" depart="34.02" departLane="best" from="882389494#1" to="1323456346#1"/>
    <trip id="truck31" type="truck_truck" depart="35.16" departLane="best" from="-4612970#0" to="4610479#0"/>
    <trip id="truck32" type="truck_truck" depart="36.29" departLane="best" from="-1101961735#0" to="292429062#3"/>
    <trip id="truck33" type="truck_truck" depart="37.43" departLane="best" departSpeed="max" from="-1323456346#1" to="1133992873#1"/>
    <trip id="truck34" type="truck_truck" depart="38.56" departLane="best" departSpeed="max" from="1151064408" to="-23121445#4"/>
    <trip id="truck35" type="truck_truck" depart="39.69" departLane="best" from="492340367#0" to="4611698"/>
    <trip id="truck36" type="truck_truck" depart="40.83" departLane="best" from="183415643" to="-194962375#0"/>
    <trip id="truck37" type="truck_truck" depart="41.96" departLane="best" from="31313667#2" to="-751595928#1"/>
    <trip id="truck38" type="truck_truck" depart="43.10" departLane="best" from="327518240#1" to="1323456346#1"/>
    <trip id="truck39" type="truck_truck" depart="44.23" departLane="best" from="4612969#2" to="43231842#1"/>
    <trip id="truck40" type="truck_truck" depart="45.37" departLane="best" departSpeed="max" from="-474362272" to="-1133457731"/>
    <trip id="truck42" type="truck_truck" depart="47.63" departLane="best" departSpeed="max" from="313647501" to="-15977422#1"/>
    <trip id="truck43" type="truck_truck" depart="48.77" departLane="best" departSpeed="max" from="-437325047" to="4611699#0"/>
    <trip id="truck44" type="truck_truck" depart="49.90" departLane="best" departSpeed="max" from="-23813206" to="705182551"/>
    <trip id="truck45" type="truck_truck" depart="51.04" departLane="best" departSpeed="max" from="-60333309#1" to="188386313#1"/>
    <trip id="truck46" type="truck_truck" depart="52.17" departLane="best" departSpeed="max" from="-312176585" to="-339201177#2"/>
    <trip id="truck48" type="truck_truck" depart="54.44" departLane="best" from="316746323#3" to="23812656#3"/>
    <trip id="truck49" type="truck_truck" depart="55.57" departLane="best" departSpeed="max" from="-25294729#1" to="-168940071#2"/>
    <trip id="truck50" type="truck_truck" depart="56.71" departLane="best" departSpeed="max" from="54698846#0" to="-168940071#5"/>
    <trip id="truck51" type="truck_truck" depart="57.84" departLane="best" from="342968607#1" to="25294728#0"/>
    <trip id="truck52" type="truck_truck" depart="58.97" departLane="best" departSpeed="max" from="-120675240#4" to="1133992735#0"/>
    <trip id="truck53" type="truck_truck" depart="60.11" departLane="best" from="1121011269#2" to="1151064410"/>
    <trip id="truck55" type="truck_truck" depart="62.38" departLane="best" from="1117432853#1" to="1217865061#0"/>
    <trip id="truck57" type="truck_truck" depart="64.65" departLane="best" from="1121011269#1" to="465376254#3"/>
    <trip id="truck58" type="truck_truck" depart="65.78" departLane="best" from="-1323456346#0" to="-1123151415#2"/>
    <trip id="truck59" type="truck_truck" depart="66.91" departLane="best" from="950222545" to="43231842#1"/>
    <trip id="truck60" type="truck_truck" depart="68.05" departLane="best" departSpeed="max" from="4610374#0" to="-202817674#2"/>
    <trip id="truck61" type="truck_truck" depart="69.18" departLane="best" from="1151064396" to="-316746323#4"/>
    <trip id="truck62" type="truck_truck" depart="70.32" departLane="best" from="-1114798610#1" to="-1133457731"/>
    <trip id="truck63" type="truck_truck" depart="71.45" departLane="best" from="1100889498" to="82658671#1"/>
    <trip id="truck64" type="truck_truck" depart="72.58" departLane="best" from="137630045#0" to="-292429062#0"/>
    <trip id="truck65" type="truck_truck" depart="73.72" departLane="best" from="750204886#0" to="169195795#0"/>
    <trip id="truck66" type="truck_truck" depart="74.85" departLane="best" from="-11483007#2" to="4773465#2"/>
    <trip id="truck69" type="truck_truck" depart="78.25" departLane="best" from="-1155226001#1" to="23812656#3"/>
    <trip id="truck72" type="truck_truck" depart="81.66" departLane="best" from="23121445#2" to="-6228081#1"/>
    <trip id="truck73" type="truck_truck" depart="82.79" departLane="best" from="492340367#0" to="310176513#2"/>
    <trip id="truck74" type="truck_truck" depart="83.93" departLane="best" from="-902316106#1" to="882389494#1"/>
    <trip id="truck76" type="truck_truck" depart="86.19" departLane="best" from="1025851956" to="-195397539"/>
    <trip id="truck77" type="truck_truck" depart="87.33" departLane="best" from="188914559" to="82658674#1"/>
    <trip id="truck78" type="truck_truck" depart="88.46" departLane="best" from="370359204#1" to="60333309#0"/>
    <trip id="truck79" type="truck_truck" depart="89.60" departLane="best" from="-222328410" to="55741054"/>
    <trip id="truck80" type="truck_truck" depart="90.73" departLane="best" from="-1305423286#1" to="155186522#1"/>
    <trip id="truck81" type="truck_truck" depart="91.86" departLane="best" from="-1151064402#1" to="4790825#1"/>
    <trip id="truck82" type="truck_truck" depart="93.00" departLane="best" from="1121011269#2" to="465376254#0"/>
    <trip id="truck83" type="truck_truck" depart="94.13" departLane="best" from="30721660#4" to="155186522#0"/>
    <trip id="truck84" type="truck_truck" depart="95.27" departLane="best" departSpeed="max" from="112128419#1" to="1101961674#4"/>
    <trip id="truck85" type="truck_truck" depart="96.40" departLane="best" from="4412868#2" to="171826984#2"/>
    <trip id="truck86" type="truck_truck" depart="97.53" departLane="best" from="-168942727#2" to="-15977422#1"/>
    <trip id="truck87" type="truck_truck" depart="98.67" departLane="best" departSpeed="max" from="-474362272" to="465376254#3"/>
    <trip id="truck88" type="truck_truck" depart="99.80" departLane="best" from="461526152#1" to="-310177222#0"/>
    <trip id="truck90" type="truck_truck" depart="102.07" departLane="best" from="4610479#2" to="751595929#1"/>
    <trip id="truck91" type="truck_truck" depart="103.21" departLane="best" from="111833185#1" to="30721660#1"/>
    <trip id="truck92" type="truck_truck" depart="104.34" departLane="best" departSpeed="max" from="-55741054" to="541763974"/>
    <trip id="truck94" type="truck_truck" depart="106.61" departLane="best" from="4611698" to="4610476#4"/>
    <trip id="truck97" type="truck_truck" depart="110.01" departLane="best" from="340498976#1" to="-370359204#1"/>
    <trip id="truck98" type="truck_truck" depart="111.14" departLane="best" from="-1114798610#1" to="-28251222#0"/>
    <trip id="truck99" type="truck_truck" depart="112.28" departLane="best" departSpeed="max" from="-55741054" to="4610480#1"/>
    <trip id="truck100" type="truck_truck" depart="113.41" departLane="best" from="743631784#0" to="-492340367#0"/>
    <trip id="truck101" type="truck_truck" depart="114.55" departLane="best" from="195397561#4" to="1121011269#1"/>
    <trip id="truck102" type="truck_truck" depart="115.68" departLane="best" from="82658674#1" to="-1335908655"/>
    <trip id="truck103" type="truck_truck" depart="116.82" departLane="best" departSpeed="max" from="54698846#0" to="-137630045#1"/>
    <trip id="truck104" type="truck_truck" depart="117.95" departLane="best" from="690322561" to="4611693#1"/>
    <trip id="truck105" type="truck_truck" depart="119.08" departLane="best" from="-1305423286#2" to="1133992873#1"/>
    <trip id="truck108" type="truck_truck" depart="122.49" departLane="best" from="-1101961735#0" to="168942727#1"/>
    <trip id="truck109" type="truck_truck" depart="123.62" departLane="best" from="370359204#3" to="289966281"/>
    <trip id="truck110" type="truck_truck" depart="124.75" departLane="best" from="-1040930907#4" to="-541295976#2"/>
    <trip id="truck113" type="truck_truck" depart="128.16" departLane="best" from="195411604" to="100405009#2"/>
    <trip id="truck115" type="truck_truck" depart="130.42" departLane="best" from="1117432853#1" to="-6228081#1"/>
    <trip id="truck116" type="truck_truck" depart="131.56" departLane="best" from="155186522#1" to="-1127595983"/>
    <trip id="truck117" type="truck_truck" depart="132.69" departLane="best" from="54698846#1" to="24243101"/>
    <trip id="truck118" type="truck_truck" depart="133.83" departLane="best" from="-1040930907#3" to="-51167934#0"/>
    <trip id="truck119" type="truck_truck" depart="134.96" departLane="best" departSpeed="max" from="112128419#1" to="169195795#1"/>
    <trip id="truck120" type="truck_truck" depart="136.10" departLane="best" from="202157002#0" to="1151064407#2"/>
    <trip id="truck121" type="truck_truck" depart="137.23" departLane="best" from="1126237668#1" to="-316746323#4"/>
    <trip id="truck122" type="truck_truck" depart="138.36" departLane="best" from="340498976#10" to="-202817674#5"/>
    <trip id="truck123" type="truck_truck" depart="139.50" departLane="best" from="1173516145#1" to="1267489731#3"/>
    <trip id="truck124" type="truck_truck" depart="140.63" departLane="best" from="195397541#0" to="1040930907#3"/>
    <trip id="truck125" type="truck_truck" depart="141.77" departLane="best" from="370359204#3" to="310176513#2"/>
    <trip id="truck126" type="truck_truck" depart="142.90" departLane="best" departSpeed="max" from="-23813206" to="-111833185#0"/>
    <trip id="truck127" type="truck_truck" depart="144.03" departLane="best" from="-339201177#2" to="1152640374#2"/>
    <trip id="truck128" type="truck_truck" depart="145.17" departLane="best" departSpeed="max" from="1151064408" to="-4610351#0"/>
    <trip id="truck129" type="truck_truck" depart="146.30" departLane="best" from="202157002#1" to="1101961674#1"/>
    <trip id="truck131" type="truck_truck" depart="148.57" departLane="best" from="-1305423286#1" to="1133457733"/>
    <trip id="truck132" type="truck_truck" depart="149.70" departLane="best" departSpeed="max" from="-202156991" to="66071373#1"/>
    <trip id="truck133" type="truck_truck" depart="150.84" departLane="best" from="1173516145#1" to="-1123151415#2"/>
    <trip id="truck134" type="truck_truck" depart="151.97" departLane="best" departSpeed="max" from="1127596842" to="340498976#7"/>
    <trip id="truck135" type="truck_truck" depart="153.11" departLane="best" from="23013165" to="82658674#1"/>
    <trip id="truck136" type="truck_truck" depart="154.24" departLane="best" from="169195795#1" to="606078065"/>
    <trip id="truck138" type="truck_truck" depart="156.51" departLane="best" from="-292429062#0" to="120675240#4"/>
    <trip id="truck139" type="truck_truck" depart="157.64" departLane="best" from="43164692" to="153698394#2"/>
    <trip id="truck140" type="truck_truck" depart="158.78" departLane="best" from="194073677#3" to="4612981#2"/>
    <trip id="truck142" type="truck_truck" depart="161.05" departLane="best" from="-4412868#1" to="82658671#1"/>
    <trip id="truck144" type="truck_truck" depart="163.31" departLane="best" from="1119837507#0" to="139877314#1"/>
    <trip id="truck145" type="truck_truck" depart="164.45" departLane="best" from="1119935327#1" to="-310177222#0"/>
    <trip id="truck146" type="truck_truck" depart="165.58" departLane="best" from="1120993114#2" to="4790825#1"/>
    <trip id="truck147" type="truck_truck" depart="166.72" departLane="best" from="168940071#3" to="25294729#1"/>
    <trip id="truck148" type="truck_truck" depart="167.85" departLane="best" from="4610374#1" to="606078072#1"/>
    <trip id="truck149" type="truck_truck" depart="168.98" departLane="best" from="1120993114#2" to="310176513#2"/>
    <trip id="truck150" type="truck_truck" depart="170.12" departLane="best" from="-1305423286#0" to="194962375#2"/>
    <trip id="truck151" type="truck_truck" depart="171.25" departLane="best" from="-292429062#3" to="-339201177#1"/>
    <trip id="truck153" type="truck_truck" depart="173.52" departLane="best" from="1133992735#0" to="-15977422#1"/>
    <trip id="truck154" type="truck_truck" depart="174.66" departLane="best" from="1112054538" to="168937986"/>
    <trip id="truck155" type="truck_truck" depart="175.79" departLane="best" from="1119854969#1" to="-202817674#2"/>
    <trip id="truck156" type="truck_truck" depart="176.92" departLane="best" from="24990040#1" to="1119837507#0"/>
    <trip id="truck158" type="truck_truck" depart="179.19" departLane="best" from="370359204#1" to="1152640374#0"/>
    <trip id="truck159" type="truck_truck" depart="180.33" departLane="best" from="-111251382#2" to="-751595928#1"/>
    <trip id="truck160" type="truck_truck" depart="181.46" departLane="best" from="950222545" to="1101961735#1"/>
    <trip id="truck161" type="truck_truck" depart="182.59" departLane="best" from="195411606" to="33301683"/>
    <trip id="truck162" type="truck_truck" depart="183.73" departLane="best" from="61583424#1" to="292429062#0"/>
    <trip id="truck163" type="truck_truck" depart="184.86" departLane="best" from="-111251382#2" to="-194962375#0"/>
    <trip id="truck164" type="truck_truck" depart="186.00" departLane="best" from="155186522#0" to="23812656#3"/>
    <trip id="truck166" type="truck_truck" depart="188.27" departLane="best" from="-1305423286#2" to="-111833185#0"/>
    <trip id="truck168" type="truck_truck" depart="190.53" departLane="best" departSpeed="max" from="68647306#0" to="1120993114#2"/>
    <trip id="truck170" type="truck_truck" depart="192.80" departLane="best" departSpeed="max" from="24241797#0" to="195411602#1"/>
    <trip id="truck171" type="truck_truck" depart="193.94" departLane="best" departSpeed="max" from="66071379#1" to="327518240#2"/>
    <trip id="truck172" type="truck_truck" depart="195.07" departLane="best" departSpeed="max" from="4610374#0" to="194962375#0"/>
    <trip id="truck173" type="truck_truck" depart="196.20" departLane="best" from="-137630045#1" to="82654059#1"/>
    <trip id="truck174" type="truck_truck" depart="197.34" departLane="best" departSpeed="max" from="112128419#1" to="1116360926#1"/>
    <trip id="truck175" type="truck_truck" depart="198.47" departLane="best" departSpeed="max" from="4610374#0" to="38208961"/>
    <trip id="truck178" type="truck_truck" depart="201.87" departLane="best" from="-4402228" to="344594961#0"/>
    <trip id="truck180" type="truck_truck" depart="204.14" departLane="best" from="1123106898#1" to="305093247#2"/>
    <trip id="truck181" type="truck_truck" depart="205.28" departLane="best" from="43164692" to="1155226001#1"/>
    <trip id="truck182" type="truck_truck" depart="206.41" departLane="best" from="4612973#0" to="-4610351#0"/>
    <trip id="truck183" type="truck_truck" depart="207.55" departLane="best" from="1133457766#1" to="195105329"/>
    <trip id="truck184" type="truck_truck" depart="208.68" departLane="best" from="1100889498" to="-111833185#0"/>
    <trip id="truck185" type="truck_truck" depart="209.81" departLane="best" departSpeed="max" from="4610374#0" to="234463931#0"/>
    <trip id="truck186" type="truck_truck" depart="210.95" departLane="best" departSpeed="max" from="-25294729#1" to="340498976#3"/>
    <trip id="truck187" type="truck_truck" depart="212.08" departLane="best" from="24913519#1" to="-461526153#0"/>
    <trip id="truck188" type="truck_truck" depart="213.22" departLane="best" from="-1101961674#4" to="60333309#1"/>
    <trip id="truck189" type="truck_truck" depart="214.35" departLane="best" from="-1198409426#0" to="-292429062#3"/>
    <trip id="truck191" type="truck_truck" depart="216.62" departLane="best" departSpeed="max" from="24241797#0" to="-202817674#4"/>
    <trip id="truck192" type="truck_truck" depart="217.75" departLane="best" from="-1151064407#0" to="831694400#0"/>
    <trip id="truck194" type="truck_truck" depart="220.02" departLane="best" from="168940071#1" to="1152640374#1"/>
    <trip id="truck195" type="truck_truck" depart="221.15" departLane="best" from="122820534#1" to="1133457735#1"/>
    <trip id="truck197" type="truck_truck" depart="223.42" departLane="best" from="24990040#1" to="-4612970#0"/>
    <trip id="truck198" type="truck_truck" depart="224.56" departLane="best" from="-234463928#0" to="155186522#0"/>
    <trip id="truck199" type="truck_truck" depart="225.69" departLane="best" from="23121445#0" to="-330840125#1"/>
    <trip id="truck201" type="truck_truck" depart="227.96" departLane="best" from="82654059#0" to="1305423286#1"/>
    <trip id="truck202" type="truck_truck" depart="229.09" departLane="best" departSpeed="max" from="4610524#1" to="1198409426#1"/>
    <trip id="truck203" type="truck_truck" depart="230.23" departLane="best" from="-234463931#0" to="-35578576#4"/>
    <trip id="truck205" type="truck_truck" depart="232.50" departLane="best" from="-4611693#1" to="1175552853#2"/>
    <trip id="truck206" type="truck_truck" depart="233.63" departLane="best" from="4611699#0" to="-168940071#7"/>
    <trip id="truck207" type="truck_truck" depart="234.76" departLane="best" from="23121445#0" to="-1123151415#2"/>
    <trip id="truck208" type="truck_truck" depart="235.90" departLane="best" from="54698846#1" to="1155226001#1"/>
    <trip id="truck209" type="truck_truck" depart="237.03" departLane="best" from="380240681#3" to="1121011269#2"/>
    <trip id="truck212" type="truck_truck" depart="240.43" departLane="best" departSpeed="max" from="313647501" to="195105329"/>
    <trip id="truck214" type="truck_truck" depart="242.70" departLane="best" from="30721660#3" to="60333309#1"/>
    <trip id="truck215" type="truck_truck" depart="243.84" departLane="best" from="-24913267#2" to="-31313667#0"/>
    <trip id="truck216" type="truck_truck" depart="244.97" departLane="best" from="202817674#4" to="-195397539"/>
    <trip id="truck217" type="truck_truck" depart="246.11" departLane="best" departSpeed="max" from="-202156991" to="1151064402#0"/>
    <trip id="truck218" type="truck_truck" depart="247.24" departLane="best" from="168942727#2" to="-51167934#0"/>
    <trip id="truck220" type="truck_truck" depart="249.51" departLane="best" from="23852053#3" to="-541295976#2"/>
    <trip id="truck223" type="truck_truck" depart="252.91" departLane="best" from="1121012037#1" to="153698380#1"/>
    <trip id="truck224" type="truck_truck" depart="254.04" departLane="best" from="195411602#1" to="4790825#1"/>
    <trip id="truck226" type="truck_truck" depart="256.31" departLane="best" from="-4611693#0" to="-156364570#4"/>
    <trip id="truck227" type="truck_truck" depart="257.45" departLane="best" from="-60333309#0" to="120675240#4"/>
    <trip id="truck228" type="truck_truck" depart="258.58" departLane="best" from="-1126465423" to="1133992873#1"/>
    <trip id="truck229" type="truck_truck" depart="259.72" departLane="best" from="-120675240#3" to="690322561"/>
    <trip id="truck230" type="truck_truck" depart="260.85" departLane="best" from="448810728" to="-168940071#8"/>
    <trip id="truck231" type="truck_truck" depart="261.98" departLane="best" from="23121445#3" to="4612969#1"/>
    <trip id="truck233" type="truck_truck" depart="264.25" departLane="best" from="507023458#0" to="234463931#0"/>
    <trip id="truck234" type="truck_truck" depart="265.39" departLane="best" from="168940071#4" to="202156991"/>
    <trip id="truck235" type="truck_truck" depart="266.52" departLane="best" from="-1151064407#1" to="-1173516144#0"/>
    <trip id="truck237" type="truck_truck" depart="268.79" departLane="best" from="-4611693#0" to="60333309#1"/>
    <trip id="truck238" type="truck_truck" depart="269.92" departLane="best" departSpeed="max" from="1127596842" to="-750204886#0"/>
    <trip id="truck239" type="truck_truck" depart="271.06" departLane="best" from="534588621#0" to="705182549"/>
    <trip id="truck240" type="truck_truck" depart="272.19" departLane="best" from="1117432853#2" to="1267489731#2"/>
    <trip id="truck242" type="truck_truck" depart="274.46" departLane="best" from="23121445#2" to="1113401735#1"/>
    <trip id="truck243" type="truck_truck" depart="275.59" departLane="best" from="31313667#0" to="310176513#0"/>
    <trip id="truck244" type="truck_truck" depart="276.73" departLane="best" from="-1323456346#0" to="-541295976#2"/>
    <trip id="truck245" type="truck_truck" depart="277.86" departLane="best" from="-153698380#2" to="-743631784#0"/>
    <trip id="truck246" type="truck_truck" depart="279.00" departLane="best" from="183415643" to="1151064403"/>
    <trip id="truck247" type="truck_truck" depart="280.13" departLane="best" from="-194962375#1" to="882389494#1"/>
    <trip id="truck248" type="truck_truck" depart="281.26" departLane="best" departSpeed="max" from="83517332#0" to="-492340367#1"/>
    <trip id="truck249" type="truck_truck" depart="282.40" departLane="best" from="1133457765#0" to="153698390#1"/>
    <trip id="truck251" type="truck_truck" depart="284.67" departLane="best" from="4610351#0" to="43231842#1"/>
    <trip id="truck252" type="truck_truck" depart="285.80" departLane="best" from="82658671#2" to="-4610351#0"/>
    <trip id="truck253" type="truck_truck" depart="286.93" departLane="best" from="1332751227#0" to="1119838636#2"/>
    <trip id="truck254" type="truck_truck" depart="288.07" departLane="best" from="4612969#2" to="4610480#1"/>
    <trip id="truck256" type="truck_truck" depart="290.34" departLane="best" departSpeed="max" from="4610524#1" to="60333309#0"/>
    <trip id="truck257" type="truck_truck" depart="291.47" departLane="best" from="168940071#5" to="950222545"/>
    <trip id="truck259" type="truck_truck" depart="293.74" departLane="best" from="1335908655" to="139877314#1"/>
    <trip id="truck260" type="truck_truck" depart="294.87" departLane="best" departSpeed="max" from="1127596842" to="82658674#1"/>
    <trip id="truck261" type="truck_truck" depart="296.01" departLane="best" from="156364570#2" to="-43156728#1"/>
    <trip id="truck262" type="truck_truck" depart="297.14" departLane="best" departSpeed="max" from="316092515" to="-1123150361#1"/>
    <trip id="truck263" type="truck_truck" depart="298.28" departLane="best" from="82658671#2" to="1198409426#2"/>
    <trip id="truck264" type="truck_truck" depart="299.41" departLane="best" from="28016312" to="120675240#4"/>
    <trip id="truck265" type="truck_truck" depart="300.54" departLane="best" from="168940071#8" to="4611694#1"/>
    <trip id="truck266" type="truck_truck" depart="301.68" departLane="best" from="-120675240#2" to="-1151064396"/>
    <trip id="truck267" type="truck_truck" depart="302.81" departLane="best" from="-292429062#3" to="-1123151415#3"/>
    <trip id="truck268" type="truck_truck" depart="303.95" departLane="best" from="114667396#0" to="705182549"/>
    <trip id="truck269" type="truck_truck" depart="305.08" departLane="best" departSpeed="max" from="-60333309#1" to="25294728#0"/>
    <trip id="truck270" type="truck_truck" depart="306.21" departLane="best" from="195411604" to="4610362#2"/>
    <trip id="truck271" type="truck_truck" depart="307.35" departLane="best" from="1170522567#0" to="61583423#1"/>
    <trip id="truck272" type="truck_truck" depart="308.48" departLane="best" from="4611699#0" to="169999355#1"/>
    <trip id="truck273" type="truck_truck" depart="309.62" departLane="best" departSpeed="max" from="-1151064411" to="202156991"/>
    <trip id="truck276" type="truck_truck" depart="313.02" departLane="best" from="-1133992734#1" to="340498976#12"/>
    <trip id="truck277" type="truck_truck" depart="314.15" departLane="best" from="4612969#1" to="1117432853#2"/>
    <trip id="truck278" type="truck_truck" depart="315.29" departLane="best" from="168940071#8" to="1323456346#1"/>
    <trip id="truck279" type="truck_truck" depart="316.42" departLane="best" from="153698394#4" to="831694400#0"/>
    <trip id="truck280" type="truck_truck" depart="317.56" departLane="best" from="4611694#1" to="195397561#4"/>
    <trip id="truck281" type="truck_truck" depart="318.69" departLane="best" from="-38208961" to="-4610472#2"/>
    <trip id="truck282" type="truck_truck" depart="319.82" departLane="best" from="-194962375#0" to="114667396#1"/>
    <trip id="truck283" type="truck_truck" depart="320.96" departLane="best" from="195397561#1" to="1133457733"/>
    <trip id="truck284" type="truck_truck" depart="322.09" departLane="best" departSpeed="max" from="-23813206" to="-1119854969#1"/>
    <trip id="truck285" type="truck_truck" depart="323.23" departLane="best" from="1151064388#4" to="-43156728#1"/>
    <trip id="truck286" type="truck_truck" depart="324.36" departLane="best" from="156364570#2" to="-168940071#8"/>
    <trip id="truck287" type="truck_truck" depart="325.49" departLane="best" from="23852053#1" to="310176513#0"/>
    <trip id="truck288" type="truck_truck" depart="326.63" departLane="best" from="1123151415#4" to="195105329"/>