<?xml version="1.0" encoding="UTF-8"?>

<!-- generated on 2025-03-13 20:46:38 by Eclipse SUMO netedit Version 1.22.0
<neteditConfiguration xmlns:xsi="http://www.w3.org/2001/XMLSchema-instance" xsi:noNamespaceSchemaLocation="http://sumo.dlr.de/xsd/neteditConfiguration.xsd">

    <input>
        <sumo-net-file value="/Users/pr/code/psels/RL_traffic/double_traffic/network3.net.xml"/>
    </input>

    <output>
        <output-file value="/Users/pr/code/psels/RL_traffic/double_traffic/network3.net.xml"/>
    </output>

    <processing>
        <geometry.min-radius.fix.railways value="false"/>
        <geometry.max-grade.fix value="false"/>
        <offset.disable-normalization value="true"/>
        <lefthand value="0"/>
    </processing>

    <junctions>
        <no-turnarounds value="true"/>
        <junctions.corner-detail value="5"/>
        <junctions.limit-turn-speed value="5.50"/>
        <rectangular-lane-cut value="0"/>
    </junctions>

    <pedestrian>
        <walkingareas value="0"/>
    </pedestrian>

</neteditConfiguration>
-->

<net version="1.20" junctionCornerDetail="5" limitTurnSpeed="5.50" xmlns:xsi="http://www.w3.org/2001/XMLSchema-instance" xsi:noNamespaceSchemaLocation="http://sumo.dlr.de/xsd/net_file.xsd">

    <location netOffset="0.00,0.00" convBoundary="-300.00,-300.00,420.00,410.00" origBoundary="-10000000000.00,-10000000000.00,10000000000.00,10000000000.00" projParameter="!"/>

    <edge id=":junction1_0" function="internal">
        <lane id=":junction1_0_0" index="0" speed="6.51" length="9.03" shape="12.00,63.60 11.65,61.15 10.60,59.40 8.85,58.35 6.40,58.00"/>
    </edge>
    <edge id=":junction1_1" function="internal">
        <lane id=":junction1_1_0" index="0" speed="13.89" length="27.20" shape="12.00,63.60 12.00,36.40"/>
        <lane id=":junction1_1_1" index="1" speed="13.89" length="27.20" shape="15.20,63.60 15.20,36.40"/>
        <lane id=":junction1_1_2" index="2" speed="13.89" length="27.20" shape="18.40,63.60 18.40,36.40"/>
    </edge>
    <edge id=":junction1_4" function="internal">
        <lane id=":junction1_4_0" index="0" speed="10.36" length="5.01" shape="18.40,63.60 19.11,58.64"/>
    </edge>
    <edge id=":junction1_20" function="internal">
        <lane id=":junction1_20_0" index="0" speed="10.36" length="19.50" shape="19.11,58.64 19.35,56.95 22.20,52.20 26.95,49.35 33.60,48.40"/>
    </edge>
    <edge id=":junction1_5" function="internal">
        <lane id=":junction1_5_0" index="0" speed="6.51" length="9.03" shape="33.60,58.00 31.15,58.35 29.40,59.40 28.35,61.15 28.00,63.60"/>
    </edge>
    <edge id=":junction1_6" function="internal">
        <lane id=":junction1_6_0" index="0" speed="13.89" length="27.20" shape="33.60,58.00 6.40,58.00"/>
        <lane id=":junction1_6_1" index="1" speed="13.89" length="27.20" shape="33.60,54.80 6.40,54.80"/>
        <lane id=":junction1_6_2" index="2" speed="13.89" length="27.20" shape="33.60,51.60 6.40,51.60"/>
    </edge>
    <edge id=":junction1_9" function="internal">
        <lane id=":junction1_9_0" index="0" speed="10.36" length="5.01" shape="33.60,51.60 28.64,50.89"/>
    </edge>
    <edge id=":junction1_21" function="internal">
        <lane id=":junction1_21_0" index="0" speed="10.36" length="19.50" shape="28.64,50.89 26.95,50.65 22.20,47.80 19.35,43.05 18.40,36.40"/>
    </edge>
    <edge id=":junction1_10" function="internal">
        <lane id=":junction1_10_0" index="0" speed="6.51" length="9.03" shape="28.00,36.40 28.35,38.85 29.40,40.60 31.15,41.65 33.60,42.00"/>
    </edge>
    <edge id=":junction1_11" function="internal">
        <lane id=":junction1_11_0" index="0" speed="13.89" length="27.20" shape="28.00,36.40 28.00,63.60"/>
        <lane id=":junction1_11_1" index="1" speed="13.89" length="27.20" shape="24.80,36.40 24.80,63.60"/>
        <lane id=":junction1_11_2" index="2" speed="13.89" length="27.20" shape="21.60,36.40 21.60,63.60"/>
    </edge>
    <edge id=":junction1_14" function="internal">
        <lane id=":junction1_14_0" index="0" speed="10.36" length="5.01" shape="21.60,36.40 20.89,41.36"/>
    </edge>
    <edge id=":junction1_22" function="internal">
        <lane id=":junction1_22_0" index="0" speed="10.36" length="19.50" shape="20.89,41.36 20.65,43.05 17.80,47.80 13.05,50.65 6.40,51.60"/>
    </edge>
    <edge id=":junction1_15" function="internal">
        <lane id=":junction1_15_0" index="0" speed="6.51" length="9.03" shape="6.40,42.00 8.85,41.65 10.60,40.60 11.65,38.85 12.00,36.40"/>
    </edge>
    <edge id=":junction1_16" function="internal">
        <lane id=":junction1_16_0" index="0" speed="13.89" length="27.20" shape="6.40,42.00 33.60,42.00"/>
        <lane id=":junction1_16_1" index="1" speed="13.89" length="27.20" shape="6.40,45.20 33.60,45.20"/>
        <lane id=":junction1_16_2" index="2" speed="13.89" length="27.20" shape="6.40,48.40 33.60,48.40"/>
    </edge>
    <edge id=":junction1_19" function="internal">
        <lane id=":junction1_19_0" index="0" speed="10.36" length="5.01" shape="6.40,48.40 11.36,49.11"/>
    </edge>
    <edge id=":junction1_23" function="internal">
        <lane id=":junction1_23_0" index="0" speed="10.36" length="19.50" shape="11.36,49.11 13.05,49.35 17.80,52.20 20.65,56.95 21.60,63.60"/>
    </edge>
    <edge id=":junction2_0" function="internal">
        <lane id=":junction2_0_0" index="0" speed="6.51" length="9.03" shape="142.00,63.60 141.65,61.15 140.60,59.40 138.85,58.35 136.40,58.00"/>
    </edge>
    <edge id=":junction2_1" function="internal">
        <lane id=":junction2_1_0" index="0" speed="13.89" length="27.20" shape="142.00,63.60 142.00,36.40"/>
        <lane id=":junction2_1_1" index="1" speed="13.89" length="27.20" shape="145.20,63.60 145.20,36.40"/>
        <lane id=":junction2_1_2" index="2" speed="13.89" length="27.20" shape="148.40,63.60 148.40,36.40"/>
    </edge>
    <edge id=":junction2_4" function="internal">
        <lane id=":junction2_4_0" index="0" speed="10.36" length="5.01" shape="148.40,63.60 149.11,58.64"/>
    </edge>
    <edge id=":junction2_20" function="internal">
        <lane id=":junction2_20_0" index="0" speed="10.36" length="19.50" shape="149.11,58.64 149.35,56.95 152.20,52.20 156.95,49.35 163.60,48.40"/>
    </edge>
    <edge id=":junction2_5" function="internal">
        <lane id=":junction2_5_0" index="0" speed="6.51" length="9.03" shape="163.60,58.00 161.15,58.35 159.40,59.40 158.35,61.15 158.00,63.60"/>
    </edge>
    <edge id=":junction2_6" function="internal">
        <lane id=":junction2_6_0" index="0" speed="13.89" length="27.20" shape="163.60,58.00 136.40,58.00"/>
        <lane id=":junction2_6_1" index="1" speed="13.89" length="27.20" shape="163.60,54.80 136.40,54.80"/>
        <lane id=":junction2_6_2" index="2" speed="13.89" length="27.20" shape="163.60,51.60 136.40,51.60"/>
    </edge>
    <edge id=":junction2_9" function="internal">
        <lane id=":junction2_9_0" index="0" speed="10.36" length="5.01" shape="163.60,51.60 158.64,50.89"/>
    </edge>
    <edge id=":junction2_21" function="internal">
        <lane id=":junction2_21_0" index="0" speed="10.36" length="19.50" shape="158.64,50.89 156.95,50.65 152.20,47.80 149.35,43.05 148.40,36.40"/>
    </edge>
    <edge id=":junction2_10" function="internal">
        <lane id=":junction2_10_0" index="0" speed="6.51" length="9.03" shape="158.00,36.40 158.35,38.85 159.40,40.60 161.15,41.65 163.60,42.00"/>
    </edge>
    <edge id=":junction2_11" function="internal">
        <lane id=":junction2_11_0" index="0" speed="13.89" length="27.20" shape="158.00,36.40 158.00,63.60"/>
        <lane id=":junction2_11_1" index="1" speed="13.89" length="27.20" shape="154.80,36.40 154.80,63.60"/>
        <lane id=":junction2_11_2" index="2" speed="13.89" length="27.20" shape="151.60,36.40 151.60,63.60"/>
    </edge>
    <edge id=":junction2_14" function="internal">
        <lane id=":junction2_14_0" index="0" speed="10.36" length="5.01" shape="151.60,36.40 150.89,41.36"/>
    </edge>
    <edge id=":junction2_22" function="internal">
        <lane id=":junction2_22_0" index="0" speed="10.36" length="19.50" shape="150.89,41.36 150.65,43.05 147.80,47.80 143.05,50.65 136.40,51.60"/>
    </edge>
    <edge id=":junction2_15" function="internal">
        <lane id=":junction2_15_0" index="0" speed="6.51" length="9.03" shape="136.40,42.00 138.85,41.65 140.60,40.60 141.65,38.85 142.00,36.40"/>
    </edge>
    <edge id=":junction2_16" function="internal">
        <lane id=":junction2_16_0" index="0" speed="13.89" length="27.20" shape="136.40,42.00 163.60,42.00"/>
        <lane id=":junction2_16_1" index="1" speed="13.89" length="27.20" shape="136.40,45.20 163.60,45.20"/>
        <lane id=":junction2_16_2" index="2" speed="13.89" length="27.20" shape="136.40,48.40 163.60,48.40"/>
    </edge>
    <edge id=":junction2_19" function="internal">
        <lane id=":junction2_19_0" index="0" speed="10.36" length="5.01" shape="136.40,48.40 141.36,49.11"/>
    </edge>
    <edge id=":junction2_23" function="internal">
        <lane id=":junction2_23_0" index="0" speed="10.36" length="19.50" shape="141.36,49.11 143.05,49.35 147.80,52.20 150.65,56.95 151.60,63.60"/>
    </edge>

    <edge id="A_junction1" from="A" to="junction1" priority="-1">
        <lane id="A_junction1_0" index="0" speed="13.89" length="306.40" shape="-300.00,42.00 6.40,42.00"/>
        <lane id="A_junction1_1" index="1" speed="13.89" length="306.40" shape="-300.00,45.20 6.40,45.20"/>
        <lane id="A_junction1_2" index="2" speed="13.89" length="306.40" shape="-300.00,48.40 6.40,48.40"/>
    </edge>
    <edge id="B_junction1" from="junction1" to="B" priority="-1">
        <lane id="B_junction1_0" index="0" speed="13.89" length="346.40" shape="28.00,63.60 28.00,410.00"/>
        <lane id="B_junction1_1" index="1" speed="13.89" length="346.40" shape="24.80,63.60 24.80,410.00"/>
        <lane id="B_junction1_2" index="2" speed="13.89" length="346.40" shape="21.60,63.60 21.60,410.00"/>
    </edge>
    <edge id="C_junction2" from="C" to="junction2" priority="-1">
        <lane id="C_junction2_0" index="0" speed="13.89" length="346.40" shape="142.00,410.00 142.00,63.60"/>
        <lane id="C_junction2_1" index="1" speed="13.89" length="346.40" shape="145.20,410.00 145.20,63.60"/>
        <lane id="C_junction2_2" index="2" speed="13.89" length="346.40" shape="148.40,410.00 148.40,63.60"/>
    </edge>
    <edge id="D_junction2" from="D" to="junction2" priority="-1">
        <lane id="D_junction2_0" index="0" speed="13.89" length="256.40" shape="420.00,58.00 163.60,58.00"/>
        <lane id="D_junction2_1" index="1" speed="13.89" length="256.40" shape="420.00,54.80 163.60,54.80"/>
        <lane id="D_junction2_2" index="2" speed="13.89" length="256.40" shape="420.00,51.60 163.60,51.60"/>
    </edge>
    <edge id="E_junction2" from="E" to="junction2" priority="-1">
        <lane id="E_junction2_0" index="0" speed="13.89" length="336.40" shape="158.00,-300.00 158.00,36.40"/>
        <lane id="E_junction2_1" index="1" speed="13.89" length="336.40" shape="154.80,-300.00 154.80,36.40"/>
        <lane id="E_junction2_2" index="2" speed="13.89" length="336.40" shape="151.60,-300.00 151.60,36.40"/>
    </edge>
    <edge id="F_junction1" from="F" to="junction1" priority="-1">
        <lane id="F_junction1_0" index="0" speed="13.89" length="336.40" shape="28.00,-300.00 28.00,36.40"/>
        <lane id="F_junction1_1" index="1" speed="13.89" length="336.40" shape="24.80,-300.00 24.80,36.40"/>
        <lane id="F_junction1_2" index="2" speed="13.89" length="336.40" shape="21.60,-300.00 21.60,36.40"/>
    </edge>
    <edge id="junction1_A" from="junction1" to="A" priority="-1">
        <lane id="junction1_A_0" index="0" speed="13.89" length="306.40" shape="6.40,58.00 -300.00,58.00"/>
        <lane id="junction1_A_1" index="1" speed="13.89" length="306.40" shape="6.40,54.80 -300.00,54.80"/>
        <lane id="junction1_A_2" index="2" speed="13.89" length="306.40" shape="6.40,51.60 -300.00,51.60"/>
    </edge>
    <edge id="junction1_B" from="B" to="junction1" priority="-1">
        <lane id="junction1_B_0" index="0" speed="13.89" length="346.40" shape="12.00,410.00 12.00,63.60"/>
        <lane id="junction1_B_1" index="1" speed="13.89" length="346.40" shape="15.20,410.00 15.20,63.60"/>
        <lane id="junction1_B_2" index="2" speed="13.89" length="346.40" shape="18.40,410.00 18.40,63.60"/>
    </edge>
    <edge id="junction1_F" from="junction1" to="F" priority="-1">
        <lane id="junction1_F_0" index="0" speed="13.89" length="336.40" shape="12.00,36.40 12.00,-300.00"/>
        <lane id="junction1_F_1" index="1" speed="13.89" length="336.40" shape="15.20,36.40 15.20,-300.00"/>
        <lane id="junction1_F_2" index="2" speed="13.89" length="336.40" shape="18.40,36.40 18.40,-300.00"/>
    </edge>
    <edge id="junction1_junction2" from="junction1" to="junction2" priority="-1">
        <lane id="junction1_junction2_0" index="0" speed="13.89" length="102.80" shape="33.60,42.00 136.40,42.00"/>
        <lane id="junction1_junction2_1" index="1" speed="13.89" length="102.80" shape="33.60,45.20 136.40,45.20"/>
        <lane id="junction1_junction2_2" index="2" speed="13.89" length="102.80" shape="33.60,48.40 136.40,48.40"/>
    </edge>
    <edge id="junction2_C" from="junction2" to="C" priority="-1">
        <lane id="junction2_C_0" index="0" speed="13.89" length="346.40" shape="158.00,63.60 158.00,410.00"/>
        <lane id="junction2_C_1" index="1" speed="13.89" length="346.40" shape="154.80,63.60 154.80,410.00"/>
        <lane id="junction2_C_2" index="2" speed="13.89" length="346.40" shape="151.60,63.60 151.60,410.00"/>
    </edge>
    <edge id="junction2_D" from="junction2" to="D" priority="-1">
        <lane id="junction2_D_0" index="0" speed="13.89" length="256.40" shape="163.60,42.00 420.00,42.00"/>
        <lane id="junction2_D_1" index="1" speed="13.89" length="256.40" shape="163.60,45.20 420.00,45.20"/>
        <lane id="junction2_D_2" index="2" speed="13.89" length="256.40" shape="163.60,48.40 420.00,48.40"/>
    </edge>
    <edge id="junction2_E" from="junction2" to="E" priority="-1">
        <lane id="junction2_E_0" index="0" speed="13.89" length="336.40" shape="142.00,36.40 142.00,-300.00"/>
        <lane id="junction2_E_1" index="1" speed="13.89" length="336.40" shape="145.20,36.40 145.20,-300.00"/>
        <lane id="junction2_E_2" index="2" speed="13.89" length="336.40" shape="148.40,36.40 148.40,-300.00"/>
    </edge>
    <edge id="junction2_junction1" from="junction2" to="junction1" priority="-1">
        <lane id="junction2_junction1_0" index="0" speed="13.89" length="102.80" shape="136.40,58.00 33.60,58.00"/>
        <lane id="junction2_junction1_1" index="1" speed="13.89" length="102.80" shape="136.40,54.80 33.60,54.80"/>
        <lane id="junction2_junction1_2" index="2" speed="13.89" length="102.80" shape="136.40,51.60 33.60,51.60"/>
    </edge>

    <tlLogic id="B" type="static" programID="0" offset="0">
        <phase duration="42" state="GGGGgsrrrrGGGGgsrrrr"/>
        <phase duration="3"  state="yyyyysrrrryyyyysrrrr"/>
        <phase duration="42" state="srrrrGGGGgsrrrrGGGGg"/>
        <phase duration="3"  state="srrrryyyyysrrrryyyyy"/>
    </tlLogic>
    <tlLogic id="E" type="static" programID="0" offset="0">
        <phase duration="42" state="GGGGgsrrrrGGGGgsrrrr"/>
        <phase duration="3"  state="yyyyysrrrryyyyysrrrr"/>
        <phase duration="42" state="srrrrGGGGgsrrrrGGGGg"/>
        <phase duration="3"  state="srrrryyyyysrrrryyyyy"/>
    </tlLogic>

    <junction id="A" type="dead_end" x="-300.00" y="50.00" incLanes="junction1_A_0 junction1_A_1 junction1_A_2" intLanes="" shape="-300.00,50.00 -300.00,59.60 -300.00,50.00"/>
    <junction id="B" type="dead_end" x="20.00" y="410.00" incLanes="B_junction1_0 B_junction1_1 B_junction1_2" intLanes="" shape="20.00,410.00 29.60,410.00 20.00,410.00"/>
    <junction id="C" type="dead_end" x="150.00" y="410.00" incLanes="junction2_C_0 junction2_C_1 junction2_C_2" intLanes="" shape="150.00,410.00 159.60,410.00 150.00,410.00"/>
    <junction id="D" type="dead_end" x="420.00" y="50.00" incLanes="junction2_D_0 junction2_D_1 junction2_D_2" intLanes="" shape="420.00,50.00 420.00,40.40 420.00,50.00"/>
    <junction id="E" type="dead_end" x="150.00" y="-300.00" incLanes="junction2_E_0 junction2_E_1 junction2_E_2" intLanes="" shape="150.00,-300.00 140.40,-300.00 150.00,-300.00"/>
    <junction id="F" type="dead_end" x="20.00" y="-300.00" incLanes="junction1_F_0 junction1_F_1 junction1_F_2" intLanes="" shape="20.00,-300.00 10.40,-300.00 20.00,-300.00"/>
    <junction id="junction1" type="traffic_light_right_on_red" x="20.00" y="50.00" incLanes="junction1_B_0 junction1_B_1 junction1_B_2 junction2_junction1_0 junction2_junction1_1 junction2_junction1_2 F_junction1_0 F_junction1_1 F_junction1_2 A_junction1_0 A_junction1_1 A_junction1_2" intLanes=":junction1_0_0 :junction1_1_0 :junction1_1_1 :junction1_1_2 :junction1_20_0 :junction1_5_0 :junction1_6_0 :junction1_6_1 :junction1_6_2 :junction1_21_0 :junction1_10_0 :junction1_11_0 :junction1_11_1 :junction1_11_2 :junction1_22_0 :junction1_15_0 :junction1_16_0 :junction1_16_1 :junction1_16_2 :junction1_23_0" shape="10.40,63.60 29.60,63.60 30.04,61.38 30.60,60.60 31.38,60.04 32.38,59.71 33.60,59.60 33.60,40.40 31.38,39.96 30.60,39.40 30.04,38.62 29.71,37.62 29.60,36.40 10.40,36.40 9.96,38.62 9.40,39.40 8.62,39.96 7.62,40.29 6.40,40.40 6.40,59.60 8.62,60.04 9.40,60.60 9.96,61.38 10.29,62.38">
        <request index="0"  response="00000000000111000000" foes="00000000000111000000" cont="0"/>
        <request index="1"  response="10000000001000000000" foes="11111100001111000000" cont="0"/>
        <request index="2"  response="10000000001000000000" foes="11111100001111000000" cont="0"/>
        <request index="3"  response="10000000001000000000" foes="11111100001111000000" cont="0"/>
        <request index="4"  response="10000011101000000000" foes="11110011101111000000" cont="1"/>
        <request index="5"  response="00000011100000000000" foes="00000011100000000000" cont="0"/>
        <request index="6"  response="00000111100000011111" foes="10000111100000011111" cont="0"/>
        <request index="7"  response="00000111100000011111" foes="10000111100000011111" cont="0"/>
        <request index="8"  response="00000111100000011111" foes="10000111100000011111" cont="0"/>
        <request index="9"  response="01110111100000011110" foes="01110111100000011110" cont="1"/>
        <request index="10" response="01110000000000000000" foes="01110000000000000000" cont="0"/>
        <request index="11" response="10000000001000000000" foes="11110000001111110000" cont="0"/>
        <request index="12" response="10000000001000000000" foes="11110000001111110000" cont="0"/>
        <request index="13" response="10000000001000000000" foes="11110000001111110000" cont="0"/>
        <request index="14" response="10000000001000001110" foes="11110000001111001110" cont="1"/>
        <request index="15" response="00000000000000001110" foes="00000000000000001110" cont="0"/>
        <request index="16" response="00000111110000011110" foes="00000111111000011110" cont="0"/>
        <request index="17" response="00000111110000011110" foes="00000111111000011110" cont="0"/>
        <request index="18" response="00000111110000011110" foes="00000111111000011110" cont="0"/>
        <request index="19" response="00000111100111011110" foes="00000111100111011110" cont="1"/>
    </junction>
    <junction id="junction2" type="traffic_light_right_on_red" x="150.00" y="50.00" incLanes="C_junction2_0 C_junction2_1 C_junction2_2 D_junction2_0 D_junction2_1 D_junction2_2 E_junction2_0 E_junction2_1 E_junction2_2 junction1_junction2_0 junction1_junction2_1 junction1_junction2_2" intLanes=":junction2_0_0 :junction2_1_0 :junction2_1_1 :junction2_1_2 :junction2_20_0 :junction2_5_0 :junction2_6_0 :junction2_6_1 :junction2_6_2 :junction2_21_0 :junction2_10_0 :junction2_11_0 :junction2_11_1 :junction2_11_2 :junction2_22_0 :junction2_15_0 :junction2_16_0 :junction2_16_1 :junction2_16_2 :junction2_23_0" shape="140.40,63.60 159.60,63.60 160.04,61.38 160.60,60.60 161.38,60.04 162.38,59.71 163.60,59.60 163.60,40.40 161.38,39.96 160.60,39.40 160.04,38.62 159.71,37.62 159.60,36.40 140.40,36.40 139.96,38.62 139.40,39.40 138.62,39.96 137.62,40.29 136.40,40.40 136.40,59.60 138.62,60.04 139.40,60.60 139.96,61.38 140.29,62.38">
        <request index="0"  response="00000000000111000000" foes="00000000000111000000" cont="0"/>
        <request index="1"  response="10000000001000000000" foes="11111100001111000000" cont="0"/>
        <request index="2"  response="10000000001000000000" foes="11111100001111000000" cont="0"/>
        <request index="3"  response="10000000001000000000" foes="11111100001111000000" cont="0"/>
        <request index="4"  response="10000011101000000000" foes="11110011101111000000" cont="1"/>
        <request index="5"  response="00000011100000000000" foes="00000011100000000000" cont="0"/>
        <request index="6"  response="00000111100000011111" foes="10000111100000011111" cont="0"/>
        <request index="7"  response="00000111100000011111" foes="10000111100000011111" cont="0"/>
        <request index="8"  response="00000111100000011111" foes="10000111100000011111" cont="0"/>
        <request index="9"  response="01110111100000011110" foes="01110111100000011110" cont="1"/>
        <request index="10" response="01110000000000000000" foes="01110000000000000000" cont="0"/>
        <request index="11" response="10000000001000000000" foes="11110000001111110000" cont="0"/>
        <request index="12" response="10000000001000000000" foes="11110000001111110000" cont="0"/>
        <request index="13" response="10000000001000000000" foes="11110000001111110000" cont="0"/>
        <request index="14" response="10000000001000001110" foes="11110000001111001110" cont="1"/>
        <request index="15" response="00000000000000001110" foes="00000000000000001110" cont="0"/>
        <request index="16" response="00000111110000011110" foes="00000111111000011110" cont="0"/>
        <request index="17" response="00000111110000011110" foes="00000111111000011110" cont="0"/>
        <request index="18" response="00000111110000011110" foes="00000111111000011110" cont="0"/>
        <request index="19" response="00000111100111011110" foes="00000111100111011110" cont="1"/>
    </junction>

    <junction id=":junction1_20_0" type="internal" x="19.11" y="58.64" incLanes=":junction1_4_0 F_junction1_0 F_junction1_1 F_junction1_2" intLanes=":junction1_6_0 :junction1_6_1 :junction1_6_2 :junction1_9_0 :junction1_10_0 :junction1_11_0 :junction1_11_1 :junction1_11_2 :junction1_16_0 :junction1_16_1 :junction1_16_2 :junction1_19_0"/>
    <junction id=":junction1_21_0" type="internal" x="28.64" y="50.89" incLanes=":junction1_9_0 A_junction1_0 A_junction1_1 A_junction1_2" intLanes=":junction1_1_0 :junction1_1_1 :junction1_1_2 :junction1_4_0 :junction1_11_0 :junction1_11_1 :junction1_11_2 :junction1_14_0 :junction1_15_0 :junction1_16_0 :junction1_16_1 :junction1_16_2"/>
    <junction id=":junction1_22_0" type="internal" x="20.89" y="41.36" incLanes=":junction1_14_0 junction1_B_0 junction1_B_1 junction1_B_2" intLanes=":junction1_0_0 :junction1_1_0 :junction1_1_1 :junction1_1_2 :junction1_6_0 :junction1_6_1 :junction1_6_2 :junction1_9_0 :junction1_16_0 :junction1_16_1 :junction1_16_2 :junction1_19_0"/>
    <junction id=":junction1_23_0" type="internal" x="11.36" y="49.11" incLanes=":junction1_19_0 junction2_junction1_0 junction2_junction1_1 junction2_junction1_2" intLanes=":junction1_1_0 :junction1_1_1 :junction1_1_2 :junction1_4_0 :junction1_5_0 :junction1_6_0 :junction1_6_1 :junction1_6_2 :junction1_11_0 :junction1_11_1 :junction1_11_2 :junction1_14_0"/>
    <junction id=":junction2_20_0" type="internal" x="149.11" y="58.64" incLanes=":junction2_4_0 E_junction2_0 E_junction2_1 E_junction2_2" intLanes=":junction2_6_0 :junction2_6_1 :junction2_6_2 :junction2_9_0 :junction2_10_0 :junction2_11_0 :junction2_11_1 :junction2_11_2 :junction2_16_0 :junction2_16_1 :junction2_16_2 :junction2_19_0"/>
    <junction id=":junction2_21_0" type="internal" x="158.64" y="50.89" incLanes=":junction2_9_0 junction1_junction2_0 junction1_junction2_1 junction1_junction2_2" intLanes=":junction2_1_0 :junction2_1_1 :junction2_1_2 :junction2_4_0 :junction2_11_0 :junction2_11_1 :junction2_11_2 :junction2_14_0 :junction2_15_0 :junction2_16_0 :junction2_16_1 :junction2_16_2"/>
    <junction id=":junction2_22_0" type="internal" x="150.89" y="41.36" incLanes=":junction2_14_0 C_junction2_0 C_junction2_1 C_junction2_2" intLanes=":junction2_0_0 :junction2_1_0 :junction2_1_1 :junction2_1_2 :junction2_6_0 :junction2_6_1 :junction2_6_2 :junction2_9_0 :junction2_16_0 :junction2_16_1 :junction2_16_2 :junction2_19_0"/>
    <junction id=":junction2_23_0" type="internal" x="141.36" y="49.11" incLanes=":junction2_19_0 D_junction2_0 D_junction2_1 D_junction2_2" intLanes=":junction2_1_0 :junction2_1_1 :junction2_1_2 :junction2_4_0 :junction2_5_0 :junction2_6_0 :junction2_6_1 :junction2_6_2 :junction2_11_0 :junction2_11_1 :junction2_11_2 :junction2_14_0"/>

    <connection from="A_junction1" to="junction1_F" fromLane="0" toLane="0" via=":junction1_15_0" tl="B" linkIndex="15" dir="r" state="o"/>
    <connection from="A_junction1" to="junction1_junction2" fromLane="0" toLane="0" via=":junction1_16_0" tl="B" linkIndex="16" dir="s" state="o"/>
    <connection from="A_junction1" to="junction1_junction2" fromLane="1" toLane="1" via=":junction1_16_1" tl="B" linkIndex="17" dir="s" state="o"/>
    <connection from="A_junction1" to="junction1_junction2" fromLane="2" toLane="2" via=":junction1_16_2" tl="B" linkIndex="18" dir="s" state="o"/>
    <connection from="A_junction1" to="B_junction1" fromLane="2" toLane="2" via=":junction1_19_0" tl="B" linkIndex="19" dir="l" state="o"/>
    <connection from="C_junction2" to="junction2_junction1" fromLane="0" toLane="0" via=":junction2_0_0" tl="E" linkIndex="0" dir="r" state="O"/>
    <connection from="C_junction2" to="junction2_E" fromLane="0" toLane="0" via=":junction2_1_0" tl="E" linkIndex="1" dir="s" state="O"/>
    <connection from="C_junction2" to="junction2_E" fromLane="1" toLane="1" via=":junction2_1_1" tl="E" linkIndex="2" dir="s" state="O"/>
    <connection from="C_junction2" to="junction2_E" fromLane="2" toLane="2" via=":junction2_1_2" tl="E" linkIndex="3" dir="s" state="O"/>
    <connection from="C_junction2" to="junction2_D" fromLane="2" toLane="2" via=":junction2_4_0" tl="E" linkIndex="4" dir="l" state="o"/>
    <connection from="D_junction2" to="junction2_C" fromLane="0" toLane="0" via=":junction2_5_0" tl="E" linkIndex="5" dir="r" state="o"/>
    <connection from="D_junction2" to="junction2_junction1" fromLane="0" toLane="0" via=":junction2_6_0" tl="E" linkIndex="6" dir="s" state="o"/>
    <connection from="D_junction2" to="junction2_junction1" fromLane="1" toLane="1" via=":junction2_6_1" tl="E" linkIndex="7" dir="s" state="o"/>
    <connection from="D_junction2" to="junction2_junction1" fromLane="2" toLane="2" via=":junction2_6_2" tl="E" linkIndex="8" dir="s" state="o"/>
    <connection from="D_junction2" to="junction2_E" fromLane="2" toLane="2" via=":junction2_9_0" tl="E" linkIndex="9" dir="l" state="o"/>
    <connection from="E_junction2" to="junction2_D" fromLane="0" toLane="0" via=":junction2_10_0" tl="E" linkIndex="10" dir="r" state="O"/>
    <connection from="E_junction2" to="junction2_C" fromLane="0" toLane="0" via=":junction2_11_0" tl="E" linkIndex="11" dir="s" state="O"/>
    <connection from="E_junction2" to="junction2_C" fromLane="1" toLane="1" via=":junction2_11_1" tl="E" linkIndex="12" dir="s" state="O"/>
    <connection from="E_junction2" to="junction2_C" fromLane="2" toLane="2" via=":junction2_11_2" tl="E" linkIndex="13" dir="s" state="O"/>
    <connection from="E_junction2" to="junction2_junction1" fromLane="2" toLane="2" via=":junction2_14_0" tl="E" linkIndex="14" dir="l" state="o"/>
    <connection from="F_junction1" to="junction1_junction2" fromLane="0" toLane="0" via=":junction1_10_0" tl="B" linkIndex="10" dir="r" state="O"/>
    <connection from="F_junction1" to="B_junction1" fromLane="0" toLane="0" via=":junction1_11_0" tl="B" linkIndex="11" dir="s" state="O"/>
    <connection from="F_junction1" to="B_junction1" fromLane="1" toLane="1" via=":junction1_11_1" tl="B" linkIndex="12" dir="s" state="O"/>
    <connection from="F_junction1" to="B_junction1" fromLane="2" toLane="2" via=":junction1_11_2" tl="B" linkIndex="13" dir="s" state="O"/>
    <connection from="F_junction1" to="junction1_A" fromLane="2" toLane="2" via=":junction1_14_0" tl="B" linkIndex="14" dir="l" state="o"/>
    <connection from="junction1_B" to="junction1_A" fromLane="0" toLane="0" via=":junction1_0_0" tl="B" linkIndex="0" dir="r" state="O"/>
    <connection from="junction1_B" to="junction1_F" fromLane="0" toLane="0" via=":junction1_1_0" tl="B" linkIndex="1" dir="s" state="O"/>
    <connection from="junction1_B" to="junction1_F" fromLane="1" toLane="1" via=":junction1_1_1" tl="B" linkIndex="2" dir="s" state="O"/>
    <connection from="junction1_B" to="junction1_F" fromLane="2" toLane="2" via=":junction1_1_2" tl="B" linkIndex="3" dir="s" state="O"/>
    <connection from="junction1_B" to="junction1_junction2" fromLane="2" toLane="2" via=":junction1_4_0" tl="B" linkIndex="4" dir="l" state="o"/>
    <connection from="junction1_junction2" to="junction2_E" fromLane="0" toLane="0" via=":junction2_15_0" tl="E" linkIndex="15" dir="r" state="o"/>
    <connection from="junction1_junction2" to="junction2_D" fromLane="0" toLane="0" via=":junction2_16_0" tl="E" linkIndex="16" dir="s" state="o"/>
    <connection from="junction1_junction2" to="junction2_D" fromLane="1" toLane="1" via=":junction2_16_1" tl="E" linkIndex="17" dir="s" state="o"/>