<?xml version="1.0" encoding="iso-8859-1"?>

<configuration xmlns:xsi="http://www.w3.org/2001/XMLSchema-instance" xsi:noNamespaceSchemaLocation="http://sumo.sf.net/xsd/sumoConfiguration.xsd">

    <input>
        <net-file value="network.net.xml"/>
        <route-files value="flow.rou.xml"/>
    </input>

    <time>
        <begin value="0"/>
        <end value="15000"/>
        <step-length value="0.01"/>
    </time>

    <gui_only>
        <start value="true"/>
        <gui-settings-file value="../full_state_sumo_gui_settings.xml"/>
    </gui_only>


    <routing-algorithm value="dijkstra"/>


</configuration>
