<?xml version="1.0" encoding="UTF-8"?>

<!-- generated on 2025-03-17 22:35:41.309188 by osmWebWizard.py UNKNOWN
<configuration>
    <net-file value="/Users/arseneclaustre/Sumo/2025-03-17-22-35-29/osm.net.xml.gz"/>
    <output-trip-file value="/Users/arseneclaustre/Sumo/2025-03-17-22-35-29/osm.motorcycle.trips.xml"/>
    <route-file value="/Users/arseneclaustre/Sumo/2025-03-17-22-35-29/osm.motorcycle.rou.xml"/>
    <prefix value="motorcycle"/>
    <trip-attributes value="departLane=&quot;best&quot;"/>
    <fringe-start-attributes value="departSpeed=&quot;max&quot;"/>
    <vehicle-class value="motorcycle"/>
    <fringe-factor value="2"/>
    <vclass value="motorcycle"/>
    <via-edge-types value="highway.motorway,highway.motorway_link,highway.trunk_link,highway.primary_link,highway.secondary_link,highway.tertiary_link"/>
    <max-distance value="1200.0"/>
    <remove-loops value="True"/>
    <validate value="True"/>
    <end value="130000.0"/>
    <insertion-density value="10.0"/>
</configuration>
-->

<!-- generated on 2025-03-17 22:35:41 by Eclipse SUMO duarouter Version 1.22.0
<duarouterConfiguration xmlns:xsi="http://www.w3.org/2001/XMLSchema-instance" xsi:noNamespaceSchemaLocation="http://sumo.dlr.de/xsd/duarouterConfiguration.xsd">

    <input>
        <net-file value="/Users/arseneclaustre/Sumo/2025-03-17-22-35-29/osm.net.xml.gz"/>
        <route-files value="/Users/arseneclaustre/Sumo/2025-03-17-22-35-29/osm.motorcycle.trips.xml"/>
    </input>

    <output>
        <output-file value="/Users/arseneclaustre/Sumo/2025-03-17-22-35-29/osm.motorcycle.trips.xml.tmp"/>
        <alternatives-output value="NUL"/>
        <write-trips value="true"/>
    </output>

    <processing>
        <remove-loops value="true"/>
    </processing>

    <time>
        <begin value="0.0"/>
        <end value="130000.0"/>
    </time>

    <report>
        <no-warnings value="true"/>
        <ignore-errors value="true"/>
        <no-step-log value="true"/>
    </report>

</duarouterConfiguration>
-->

<routes xmlns:xsi="http://www.w3.org/2001/XMLSchema-instance" xsi:noNamespaceSchemaLocation="http://sumo.dlr.de/xsd/routes_file.xsd">
    <vType id="motorcycle_motorcycle" vClass="motorcycle"/>
    <trip id="motorcycle0" type="motorcycle_motorcycle" depart="0.00" departLane="best" from="37601096#1" to="35992596#1"/>
    <trip id="motorcycle1" type="motorcycle_motorcycle" depart="146.94" departLane="best" from="1165954372#1" to="-879320960#1"/>
    <trip id="motorcycle3" type="motorcycle_motorcycle" depart="440.83" departLane="best" from="738141504#2" to="368899834#0"/>
    <trip id="motorcycle5" type="motorcycle_motorcycle" depart="734.72" departLane="best" from="860156624" to="35992596#1"/>
    <trip id="motorcycle6" type="motorcycle_motorcycle" depart="881.67" departLane="best" from="35992596#1" to="-879320960#1"/>
    <trip id="motorcycle7" type="motorcycle_motorcycle" depart="1028.61" departLane="best" from="37601096#1" to="368899834#1"/>
    <trip id="motorcycle8" type="motorcycle_motorcycle" depart="1175.55" departLane="best" from="860156624" to="37601096#1"/>
    <trip id="motorcycle9" type="motorcycle_motorcycle" depart="1322.50" departLane="best" departSpeed="max" from="680050129#0" to="1275533901"/>
    <trip id="motorcycle10" type="motorcycle_motorcycle" depart="1469.44" departLane="best" departSpeed="max" from="680050129#0" to="53793441#1"/>
    <trip id="motorcycle11" type="motorcycle_motorcycle" depart="1616.39" departLane="best" departSpeed="max" from="1283314821#0" to="761265876#1"/>
    <trip id="motorcycle12" type="motorcycle_motorcycle" depart="1763.33" departLane="best" from="-860156624" to="-1196435325"/>
    <trip id="motorcycle13" type="motorcycle_motorcycle" depart="1910.27" departLane="best" from="-368899834#0" to="-368899834#0"/>
    <trip id="motorcycle14" type="motorcycle_motorcycle" depart="2057.22" departLane="best" from="738141504#0" to="4039159#1"/>
    <trip id="motorcycle15" type="motorcycle_motorcycle" depart="2204.16" departLane="best" departSpeed="max" from="680050129#0" to="53793441#1"/>
    <trip id="motorcycle16" type="motorcycle_motorcycle" depart="2351.11" departLane="best" from="-35992596#0" to="85571705"/>
    <trip id="motorcycle18" type="motorcycle_motorcycle" depart="2645.00" departLane="best" departSpeed="max" from="680050129#0" to="4039159#1"/>
    <trip id="motorcycle19" type="motorcycle_motorcycle" depart="2791.94" departLane="best" from="738141504#1" to="37601096#1"/>
    <trip id="motorcycle21" type="motorcycle_motorcycle" depart="3085.83" departLane="best" from="860156624" to="1165954372#1"/>
    <trip id="motorcycle22" type="motorcycle_motorcycle" depart="3232.77" departLane="best" from="-35992596#0" to="10659433#0"/>
    <trip id="motorcycle23" type="motorcycle_motorcycle" depart="3379.72" departLane="best" from="-368899834#0" to="10659433#1"/>
    <trip id="motorcycle24" type="motorcycle_motorcycle" depart="3526.66" departLane="best" from="-170809561" to="168094366"/>
    <trip id="motorcycle26" type="motorcycle_motorcycle" depart="3820.55" departLane="best" from="1165954372#1" to="761265876#1"/>
    <trip id="motorcycle27" type="motorcycle_motorcycle" depart="3967.49" departLane="best" from="37601096#1" to="4039159#1"/>
    <trip id="motorcycle28" type="motorcycle_motorcycle" depart="4114.44" departLane="best" from="-757328920" to="53793441#1"/>
    <trip id="motorcycle29" type="motorcycle_motorcycle" depart="4261.38" departLane="best" departSpeed="max" from="-4039159#2" to="168404431#0"/>
    <trip id="motorcycle30" type="motorcycle_motorcycle" depart="4408.33" departLane="best" departSpeed="max" from="879320960#0" to="51111533#1"/>
    <trip id="motorcycle33" type="motorcycle_motorcycle" depart="4849.16" departLane="best" from="860156624" to="35992596#1"/>
    <trip id="motorcycle34" type="motorcycle_motorcycle" depart="4996.10" departLane="best" from="1275533901" to="10659433#1"/>
    <trip id="motorcycle35" type="motorcycle_motorcycle" depart="5143.05" departLane="best" from="-761265876#1" to="85571705"/>
    <trip id="motorcycle36" type="motorcycle_motorcycle" depart="5289.99" departLane="best" from="738141504#2" to="1196435324"/>
    <trip id="motorcycle37" type="motorcycle_motorcycle" depart="5436.93" departLane="best" from="37601096#1" to="16875415"/>
    <trip id="motorcycle39" type="motorcycle_motorcycle" depart="5730.82" departLane="best" from="1165954372#1" to="10659433#1"/>
    <trip id="motorcycle40" type="motorcycle_motorcycle" depart="5877.77" departLane="best" from="-1211840094" to="10659433#1"/>
    <trip id="motorcycle41" type="motorcycle_motorcycle" depart="6024.71" departLane="best" from="368899834#0" to="757328921#1"/>
    <trip id="motorcycle42" type="motorcycle_motorcycle" depart="6171.66" departLane="best" from="168404431#0" to="-879320960#1"/>
    <trip id="motorcycle43" type="motorcycle_motorcycle" depart="6318.60" departLane="best" departSpeed="max" from="879320960#0" to="-1211840094"/>
    <trip id="motorcycle44" type="motorcycle_motorcycle" depart="6465.54" departLane="best" from="-368899834#0" to="170809561"/>
    <trip id="motorcycle45" type="motorcycle_motorcycle" depart="6612.49" departLane="best" from="-368899834#1" to="4039159#1"/>
    <trip id="motorcycle46" type="motorcycle_motorcycle" depart="6759.43" departLane="best" departSpeed="max" from="680050129#0" to="170809561"/>
    <trip id="motorcycle47" type="motorcycle_motorcycle" depart="6906.38" departLane="best" from="-170809561" to="168404431#0"/>
    <trip id="motorcycle48" type="motorcycle_motorcycle" depart="7053.32" departLane="best" departSpeed="max" from="879320960#0" to="368899834#0"/>
    <trip id="motorcycle49" type="motorcycle_motorcycle" depart="7200.26" departLane="best" departSpeed="max" from="879320960#0" to="757328921#0"/>
    <trip id="motorcycle50" type="motorcycle_motorcycle" depart="7347.21" departLane="best" from="1275533901" to="53793441#1"/>
    <trip id="motorcycle52" type="motorcycle_motorcycle" depart="7641.10" departLane="best" from="1165954372#1" to="51111533#1"/>
    <trip id="motorcycle53" type="motorcycle_motorcycle" depart="7788.04" departLane="best" from="368899834#1" to="172654731"/>
    <trip id="motorcycle55" type="motorcycle_motorcycle" depart="8081.93" departLane="best" from="738141504#2" to="10659433#1"/>
    <trip id="motorcycle57" type="motorcycle_motorcycle" depart="8375.82" departLane="best" from="757328921#0" to="757328921#0"/>
    <trip id="motorcycle58" type="motorcycle_motorcycle" depart="8522.76" departLane="best" from="-1196435325" to="51111533#1"/>
    <trip id="motorcycle59" type="motorcycle_motorcycle" depart="8669.71" departLane="best" from="-368899834#1" to="761265876#1"/>
    <trip id="motorcycle60" type="motorcycle_motorcycle" depart="8816.65" departLane="best" departSpeed="max" from="64750311#0" to="368899834#1"/>
    <trip id="motorcycle61" type="motorcycle_motorcycle" depart="8963.59" departLane="best" from="64750311#2" to="368899834#0"/>
    <trip id="motorcycle62" type="motorcycle_motorcycle" depart="9110.54" departLane="best" from="1275533901" to="1196435324"/>
    <trip id="motorcycle63" type="motorcycle_motorcycle" depart="9257.48" departLane="best" from="1275533901" to="761265876#1"/>
    <trip id="motorcycle64" type="motorcycle_motorcycle" depart="9404.43" departLane="best" from="738141504#2" to="738141504#1"/>
    <trip id="motorcycle65" type="motorcycle_motorcycle" depart="9551.37" departLane="best" from="1275533901" to="170809561"/>
    <trip id="motorcycle66" type="motorcycle_motorcycle" depart="9698.32" departLane="best" from="738141504#2" to="85571705"/>
    <trip id="motorcycle67" type="motorcycle_motorcycle" depart="9845.26" departLane="best" from="-368899834#0" to="35992596#0"/>
    <trip id="motorcycle69" type="motorcycle_motorcycle" depart="10139.15" departLane="best" departSpeed="max" from="64750311#0" to="3127158#1"/>
    <trip id="motorcycle71" type="motorcycle_motorcycle" depart="10433.04" departLane="best" from="1165954372#1" to="757328921#0"/>
    <trip id="motorcycle73" type="motorcycle_motorcycle" depart="10726.92" departLane="best" from="-35992596#0" to="53793441#1"/>
    <trip id="motorcycle74" type="motorcycle_motorcycle" depart="10873.87" departLane="best" from="-761265876#1" to="1196435324"/>
    <trip id="motorcycle75" type="motorcycle_motorcycle" depart="11020.81" departLane="best" departSpeed="max" from="879320960#0" to="51111533#1"/>
    <trip id="motorcycle76" type="motorcycle_motorcycle" depart="11167.76" departLane="best" from="-170809561" to="368899834#0"/>
    <trip id="motorcycle77" type="motorcycle_motorcycle" depart="11314.70" departLane="best" from="-368899834#1" to="10659433#0"/>
    <trip id="motorcycle78" type="motorcycle_motorcycle" depart="11461.65" departLane="best" departSpeed="max" from="1283314821#0" to="37601096#1"/>
    <trip id="motorcycle79" type="motorcycle_motorcycle" depart="11608.59" departLane="best" from="860156624" to="-879320960#1"/>
    <trip id="motorcycle80" type="motorcycle_motorcycle" depart="11755.53" departLane="best" from="35992596#0" to="4039159#1"/>
    <trip id="motorcycle81" type="motorcycle_motorcycle" depart="11902.48" departLane="best" from="-860156624" to="757328921#1"/>
    <trip id="motorcycle82" type="motorcycle_motorcycle" depart="12049.42" departLane="best" from="738141504#1" to="35992596#0"/>
    <trip id="motorcycle84" type="motorcycle_motorcycle" depart="12343.31" departLane="best" from="-860156624" to="3127158#1"/>
    <trip id="motorcycle85" type="motorcycle_motorcycle" depart="12490.25" departLane="best" from="-761265876#1" to="37601096#0"/>
    <trip id="motorcycle87" type="motorcycle_motorcycle" depart="12784.14" departLane="best" departSpeed="max" from="680050129#0" to="-879320960#1"/>
    <trip id="motorcycle88" type="motorcycle_motorcycle" depart="12931.09" departLane="best" from="368899834#0" to="172654731"/>
    <trip id="motorcycle90" type="motorcycle_motorcycle" depart="13224.98" departLane="best" departSpeed="max" from="64750311#0" to="51111533#1"/>
    <trip id="motorcycle91" type="motorcycle_motorcycle" depart="13371.92" departLane="best" departSpeed="max" from="879320960#0" to="368899834#0"/>
    <trip id="motorcycle92" type="motorcycle_motorcycle" depart="13518.86" departLane="best" from="168404431#0" to="-1196435325"/>
    <trip id="motorcycle93" type="motorcycle_motorcycle" depart="13665.81" departLane="best" from="738141504#0" to="10659433#1"/>
    <trip id="motorcycle94" type="motorcycle_motorcycle" depart="13812.75" departLane="best" from="3127158#1" to="172654731"/>
    <trip id="motorcycle97" type="motorcycle_motorcycle" depart="14253.58" departLane="best" from="-170809561" to="757328921#0"/>
    <trip id="motorcycle98" type="motorcycle_motorcycle" depart="14400.53" departLane="best" from="-35992596#0" to="-170809561"/>
    <trip id="motorcycle99" type="motorcycle_motorcycle" depart="14547.47" departLane="best" departSpeed="max" from="879320960#0" to="738141504#1"/>
    <trip id="motorcycle100" type="motorcycle_motorcycle" depart="14694.42" departLane="best" departSpeed="max" from="879320960#0" to="761265876#1"/>
    <trip id="motorcycle101" type="motorcycle_motorcycle" depart="14841.36" departLane="best" from="738141504#0" to="-860156624"/>
    <trip id="motorcycle103" type="motorcycle_motorcycle" depart="15135.25" departLane="best" from="168404431#0" to="-170809561"/>
    <trip id="motorcycle107" type="motorcycle_motorcycle" depart="15723.03" departLane="best" from="860156624" to="860156624"/>
    <trip id="motorcycle108" type="motorcycle_motorcycle" depart="15869.97" departLane="best" from="-1211840094" to="53793441#1"/>
    <trip id="motorcycle109" type="motorcycle_motorcycle" depart="16016.91" departLane="best" departSpeed="max" from="-4039159#2" to="1165954372#1"/>
    <trip id="motorcycle110" type="motorcycle_motorcycle" depart="16163.86" departLane="best" departSpeed="max" from="879320960#0" to="37601096#1"/>
    <trip id="motorcycle112" type="motorcycle_motorcycle" depart="16457.75" departLane="best" from="-170809561" to="37601096#1"/>
    <trip id="motorcycle114" type="motorcycle_motorcycle" depart="16751.64" departLane="best" departSpeed="max" from="-4039159#2" to="85571705"/>
    <trip id="motorcycle115" type="motorcycle_motorcycle" depart="16898.58" departLane="best" from="35992596#0" to="-879320960#1"/>
    <trip id="motorcycle118" type="motorcycle_motorcycle" depart="17339.41" departLane="best" from="738141504#2" to="10659433#1"/>
    <trip id="motorcycle119" type="motorcycle_motorcycle" depart="17486.36" departLane="best" from="-368899834#0" to="4039159#1"/>
    <trip id="motorcycle121" type="motorcycle_motorcycle" depart="17780.24" departLane="best" from="-757328920" to="761265876#1"/>
    <trip id="motorcycle122" type="motorcycle_motorcycle" depart="17927.19" departLane="best" from="-761265876#1" to="53793441#1"/>
    <trip id="motorcycle124" type="motorcycle_motorcycle" depart="18221.08" departLane="best" from="51111535" to="1165954372#1"/>
    <trip id="motorcycle126" type="motorcycle_motorcycle" depart="18514.97" departLane="best" from="-35992596#0" to="3127158#1"/>
    <trip id="motorcycle127" type="motorcycle_motorcycle" depart="18661.91" departLane="best" departSpeed="max" from="879320960#0" to="-860156624"/>
    <trip id="motorcycle128" type="motorcycle_motorcycle" depart="18808.85" departLane="best" from="35992596#0" to="-879320960#1"/>
    <trip id="motorcycle129" type="motorcycle_motorcycle" depart="18955.80" departLane="best" from="1165954372#1" to="761265876#1"/>
    <trip id="motorcycle130" type="motorcycle_motorcycle" depart="19102.74" departLane="best" from="738141504#2" to="757328921#1"/>
    <trip id="motorcycle132" type="motorcycle_motorcycle" depart="19396.63" departLane="best" from="738141504#0" to="53793441#1"/>
    <trip id="motorcycle133" type="motorcycle_motorcycle" depart="19543.58" departLane="best" from="-368899834#1" to="860156624"/>
    <trip id="motorcycle134" type="motorcycle_motorcycle" depart="19690.52" departLane="best" from="37601096#1" to="-1196435325"/>
    <trip id="motorcycle135" type="motorcycle_motorcycle" depart="19837.46" departLane="best" departSpeed="max" from="680050129#0" to="1165954372#1"/>
    <trip id="motorcycle136" type="motorcycle_motorcycle" depart="19984.41" departLane="best" from="51111535" to="85571705"/>
    <trip id="motorcycle137" type="motorcycle_motorcycle" depart="20131.35" departLane="best" departSpeed="max" from="-4039159#2" to="368899834#1"/>
    <trip id="motorcycle138" type="motorcycle_motorcycle" depart="20278.30" departLane="best" from="-368899834#1" to="37601096#0"/>
    <trip id="motorcycle139" type="motorcycle_motorcycle" depart="20425.24" departLane="best" from="1165954372#1" to="4039159#1"/>
    <trip id="motorcycle141" type="motorcycle_motorcycle" depart="20719.13" departLane="best" from="37601096#0" to="10659433#1"/>
    <trip id="motorcycle143" type="motorcycle_motorcycle" depart="21013.02" departLane="best" from="738141504#0" to="368899834#0"/>
    <trip id="motorcycle146" type="motorcycle_motorcycle" depart="21453.85" departLane="best" from="37601096#0" to="10659433#1"/>
    <trip id="motorcycle147" type="motorcycle_motorcycle" depart="21600.79" departLane="best" departSpeed="max" from="64750311#0" to="37601096#0"/>
    <trip id="motorcycle148" type="motorcycle_motorcycle" depart="21747.74" departLane="best" from="-170809561" to="-1196435325"/>
    <trip id="motorcycle149" type="motorcycle_motorcycle" depart="21894.68" departLane="best" from="-35992596#0" to="757328921#1"/>
    <trip id="motorcycle151" type="motorcycle_motorcycle" depart="22188.57" departLane="best" from="738141504#0" to="37601096#1"/>
    <trip id="motorcycle152" type="motorcycle_motorcycle" depart="22335.51" departLane="best" departSpeed="max" from="-4039159#2" to="3127158#1"/>
    <trip id="motorcycle153" type="motorcycle_motorcycle" depart="22482.46" departLane="best" from="-1196435325" to="757328921#1"/>
    <trip id="motorcycle154" type="motorcycle_motorcycle" depart="22629.40" departLane="best" departSpeed="max" from="680050129#0" to="757328921#0"/>
    <trip id="motorcycle157" type="motorcycle_motorcycle" depart="23070.24" departLane="best" from="64750311#2" to="757328921#1"/>
    <trip id="motorcycle159" type="motorcycle_motorcycle" depart="23364.12" departLane="best" departSpeed="max" from="-4039159#2" to="-761265876#1"/>
    <trip id="motorcycle160" type="motorcycle_motorcycle" depart="23511.07" departLane="best" from="738141504#1" to="85571705"/>
    <trip id="motorcycle161" type="motorcycle_motorcycle" depart="23658.01" departLane="best" departSpeed="max" from="680050129#0" to="757328921#1"/>
    <trip id="motorcycle163" type="motorcycle_motorcycle" depart="23951.90" departLane="best" departSpeed="max" from="1283314821#0" to="761265876#1"/>
    <trip id="motorcycle164" type="motorcycle_motorcycle" depart="24098.84" departLane="best" departSpeed="max" from="680050129#0" to="757328921#0"/>
    <trip id="motorcycle165" type="motorcycle_motorcycle" depart="24245.79" departLane="best" departSpeed="max" from="680050129#0" to="10659433#1"/>
    <trip id="motorcycle166" type="motorcycle_motorcycle" depart="24392.73" departLane="best" departSpeed="max" from="680050129#0" to="-368899834#1"/>
    <trip id="motorcycle167" type="motorcycle_motorcycle" depart="24539.68" departLane="best" from="738141504#1" to="757328921#0"/>
    <trip id="motorcycle168" type="motorcycle_motorcycle" depart="24686.62" departLane="best" from="860156624" to="738141504#1"/>
    <trip id="motorcycle170" type="motorcycle_motorcycle" depart="24980.51" departLane="best" departSpeed="max" from="680050129#0" to="10659433#0"/>
    <trip id="motorcycle171" type="motorcycle_motorcycle" depart="25127.45" departLane="best" from="35992596#1" to="-879320960#1"/>
    <trip id="motorcycle172" type="motorcycle_motorcycle" depart="25274.40" departLane="best" departSpeed="max" from="1283314821#0" to="757328921#0"/>
    <trip id="motorcycle173" type="motorcycle_motorcycle" depart="25421.34" departLane="best" departSpeed="max" from="879320960#0" to="10659433#1"/>
    <trip id="motorcycle174" type="motorcycle_motorcycle" depart="25568.29" departLane="best" from="37601096#1" to="16875415"/>
    <trip id="motorcycle175" type="motorcycle_motorcycle" depart="25715.23" departLane="best" departSpeed="max" from="879320960#0" to="368899834#1"/>
    <trip id="motorcycle176" type="motorcycle_motorcycle" depart="25862.17" departLane="best" from="-860156624" to="368899834#1"/>
    <trip id="motorcycle177" type="motorcycle_motorcycle" depart="26009.12" departLane="best" departSpeed="max" from="879320960#0" to="-860156624"/>
    <trip id="motorcycle178" type="motorcycle_motorcycle" depart="26156.06" departLane="best" departSpeed="max" from="879320960#0" to="10659433#1"/>
    <trip id="motorcycle179" type="motorcycle_motorcycle" depart="26303.01" departLane="best" from="368899834#1" to="172654731"/>
    <trip id="motorcycle180" type="motorcycle_motorcycle" depart="26449.95" departLane="best" departSpeed="max" from="64750311#0" to="1196435324"/>
    <trip id="motorcycle181" type="motorcycle_motorcycle" depart="26596.90" departLane="best" from="-368899834#1" to="-368899834#0"/>
    <trip id="motorcycle182" type="motorcycle_motorcycle" depart="26743.84" departLane="best" from="168404431#0" to="37601096#1"/>
    <trip id="motorcycle184" type="motorcycle_motorcycle" depart="27037.73" departLane="best" from="1275533901" to="761265876#1"/>
    <trip id="motorcycle185" type="motorcycle_motorcycle" depart="27184.67" departLane="best" from="-35992596#0" to="53793441#1"/>
    <trip id="motorcycle186" type="motorcycle_motorcycle" depart="27331.62" departLane="best" departSpeed="max" from="64750311#0" to="51111533#1"/>
    <trip id="motorcycle188" type="motorcycle_motorcycle" depart="27625.50" departLane="best" from="51111535" to="1275533901"/>
    <trip id="motorcycle189" type="motorcycle_motorcycle" depart="27772.45" departLane="best" from="1275533901" to="738141504#2"/>
    <trip id="motorcycle191" type="motorcycle_motorcycle" depart="28066.34" departLane="best" from="1275533901" to="170809561"/>
    <trip id="motorcycle192" type="motorcycle_motorcycle" depart="28213.28" departLane="best" from="168404431#0" to="1165954372#1"/>
    <trip id="motorcycle193" type="motorcycle_motorcycle" depart="28360.23" departLane="best" from="-368899834#1" to="170809561"/>
    <trip id="motorcycle196" type="motorcycle_motorcycle" depart="28801.06" departLane="best" from="-1196435325" to="368899834#1"/>
    <trip id="motorcycle197" type="motorcycle_motorcycle" depart="28948.00" departLane="best" from="1275533901" to="1165954372#1"/>
    <trip id="motorcycle198" type="motorcycle_motorcycle" depart="29094.95" departLane="best" from="-170809561" to="37601096#1"/>
    <trip id="motorcycle199" type="motorcycle_motorcycle" depart="29241.89" departLane="best" from="37601096#1" to="3127158#1"/>
    <trip id="motorcycle200" type="motorcycle_motorcycle" depart="29388.83" departLane="best" from="170809561" to="-879320960#1"/>
    <trip id="motorcycle202" type="motorcycle_motorcycle" depart="29682.72" departLane="best" departSpeed="max" from="680050129#0" to="860156624"/>
    <trip id="motorcycle203" type="motorcycle_motorcycle" depart="29829.67" departLane="best" from="-35992596#0" to="368899834#0"/>
    <trip id="motorcycle204" type="motorcycle_motorcycle" depart="29976.61" departLane="best" from="-170809561" to="-1196435325"/>
    <trip id="motorcycle206" type="motorcycle_motorcycle" depart="30270.50" departLane="best" from="51111535" to="10659433#0"/>
    <trip id="motorcycle207" type="motorcycle_motorcycle" depart="30417.44" departLane="best" from="-761265876#1" to="-1211840094"/>
    <trip id="motorcycle209" type="motorcycle_motorcycle" depart="30711.33" departLane="best" from="738141504#0" to="35992596#0"/>
    <trip id="motorcycle211" type="motorcycle_motorcycle" depart="31005.22" departLane="best" from="-761265876#1" to="53793441#1"/>
    <trip id="motorcycle213" type="motorcycle_motorcycle" depart="31299.11" departLane="best" from="37601096#1" to="-1196435325"/>
    <trip id="motorcycle215" type="motorcycle_motorcycle" depart="31593.00" departLane="best" from="-368899834#1" to="170809561"/>
    <trip id="motorcycle216" type="motorcycle_motorcycle" depart="31739.94" departLane="best" from="-757328920" to="85571705"/>
    <trip id="motorcycle217" type="motorcycle_motorcycle" depart="31886.89" departLane="best" from="-757328920" to="170809561"/>
    <trip id="motorcycle220" type="motorcycle_motorcycle" depart="32327.72" departLane="best" from="51111535" to="860156624"/>
    <trip id="motorcycle221" type="motorcycle_motorcycle" depart="32474.66" departLane="best" from="-368899834#0" to="85571705"/>
    <trip id="motorcycle222" type="motorcycle_motorcycle" depart="32621.61" departLane="best" from="738141504#2" to="4039159#1"/>
    <trip id="motorcycle224" type="motorcycle_motorcycle" depart="32915.49" departLane="best" from="738141504#0" to="368899834#1"/>
    <trip id="motorcycle228" type="motorcycle_motorcycle" depart="33503.27" departLane="best" departSpeed="max" from="64750311#0" to="368899834#0"/>
    <trip id="motorcycle229" type="motorcycle_motorcycle" depart="33650.22" departLane="best" from="37601096#0" to="10659433#1"/>
    <trip id="motorcycle230" type="motorcycle_motorcycle" depart="33797.16" departLane="best" from="-35992596#0" to="1165954372#1"/>
    <trip id="motorcycle231" type="motorcycle_motorcycle" depart="33944.10" departLane="best" from="1165954372#1" to="1196435324"/>
    <trip id="motorcycle232" type="motorcycle_motorcycle" depart="34091.05" departLane="best" from="-35992596#0" to="3127158#1"/>
    <trip id="motorcycle233" type="motorcycle_motorcycle" depart="34237.99" departLane="best" from="860156624" to="53793441#1"/>
    <trip id="motorcycle238" type="motorcycle_motorcycle" depart="34972.71" departLane="best" from="-368899834#0" to="53793441#1"/>
    <trip id="motorcycle242" type="motorcycle_motorcycle" depart="35560.49" departLane="best" from="738141504#1" to="85571705"/>
    <trip id="motorcycle244" type="motorcycle_motorcycle" depart="35854.38" departLane="best" from="35992596#0" to="4039159#1"/>
    <trip id="motorcycle245" type="motorcycle_motorcycle" depart="36001.32" departLane="best" from="860156624" to="-879320960#1"/>
    <trip id="motorcycle246" type="motorcycle_motorcycle" depart="36148.27" departLane="best" from="170809561" to="35992596#1"/>
    <trip id="motorcycle250" type="motorcycle_motorcycle" depart="36736.04" departLane="best" from="37601096#0" to="35992596#1"/>
    <trip id="motorcycle251" type="motorcycle_motorcycle" depart="36882.99" departLane="best" from="168404431#0" to="37601096#0"/>
    <trip id="motorcycle252" type="motorcycle_motorcycle" depart="37029.93" departLane="best" from="-1211840094" to="51111533#1"/>
    <trip id="motorcycle253" type="motorcycle_motorcycle" depart="37176.88" departLane="best" departSpeed="max" from="-4039159#2" to="3127158#1"/>
    <trip id="motorcycle254" type="motorcycle_motorcycle" depart="37323.82" departLane="best" from="-170809561" to="168404431#0"/>
    <trip id="motorcycle255" type="motorcycle_motorcycle" depart="37470.76" departLane="best" from="-761265876#1" to="-1196435325"/>
    <trip id="motorcycle256" type="motorcycle_motorcycle" depart="37617.71" departLane="best" departSpeed="max" from="64750311#0" to="1165954372#1"/>
    <trip id="motorcycle257" type="motorcycle_motorcycle" depart="37764.65" departLane="best" departSpeed="max" from="64750311#0" to="738141504#1"/>
    <trip id="motorcycle259" type="motorcycle_motorcycle" depart="38058.54" departLane="best" from="-1196435325" to="368899834#1"/>
    <trip id="motorcycle260" type="motorcycle_motorcycle" depart="38205.49" departLane="best" departSpeed="max" from="879320960#0" to="168094366"/>
    <trip id="motorcycle263" type="motorcycle_motorcycle" depart="38646.32" departLane="best" from="860156624" to="-879320960#1"/>
    <trip id="motorcycle264" type="motorcycle_motorcycle" depart="38793.26" departLane="best" from="1275533901" to="761265876#1"/>
    <trip id="motorcycle265" type="motorcycle_motorcycle" depart="38940.21" departLane="best" from="368899834#1" to="51111533#1"/>
    <trip id="motorcycle266" type="motorcycle_motorcycle" depart="39087.15" departLane="best" from="35992596#1" to="-879320960#1"/>
    <trip id="motorcycle267" type="motorcycle_motorcycle" depart="39234.09" departLane="best" departSpeed="max" from="627229986#0" to="627229987#1"/>
    <trip id="motorcycle268" type="motorcycle_motorcycle" depart="39381.04" departLane="best" departSpeed="max" from="-4039159#2" to="4039159#1"/>
    <trip id="motorcycle269" type="motorcycle_motorcycle" depart="39527.98" departLane="best" departSpeed="max" from="64750311#0" to="368899834#1"/>
    <trip id="motorcycle270" type="motorcycle_motorcycle" depart="39674.93" departLane="best" departSpeed="max" from="680050129#0" to="85571705"/>
    <trip id="motorcycle271" type="motorcycle_motorcycle" depart="39821.87" departLane="best" from="-368899834#1" to="35992596#1"/>
    <trip id="motorcycle273" type="motorcycle_motorcycle" depart="40115.76" departLane="best" departSpeed="max" from="879320960#0" to="16875415"/>
    <trip id="motorcycle277" type="motorcycle_motorcycle" depart="40703.54" departLane="best" from="738141504#0" to="4039159#1"/>
    <trip id="motorcycle278" type="motorcycle_motorcycle" depart="40850.48" departLane="best" from="-368899834#1" to="860156624"/>
    <trip id="motorcycle279" type="motorcycle_motorcycle" depart="40997.42" departLane="best" from="64750311#2" to="168094366"/>
    <trip id="motorcycle280" type="motorcycle_motorcycle" depart="41144.37" departLane="best" from="-170809561" to="168404431#0"/>
    <trip id="motorcycle282" type="motorcycle_motorcycle" depart="41438.26" departLane="best" from="738141504#0" to="738141504#1"/>