<?xml version="1.0" encoding="iso-8859-1"?>

<configuration xmlns:xsi="http://www.w3.org/2001/XMLSchema-instance" xsi:noNamespaceSchemaLocation="http://sumo.sf.net/xsd/sumoConfiguration.xsd">

    <input>
        <net-file value="traditional_traffic.net.xml"/>
        <route-files value="traditional_traffic_asym.rou.xml"/>
    </input>

    <time>
        <begin value="0"/>
        <end value="20000"/>
        <step-length value="0.1"/>
    </time>

    <gui_only>
        <start value="true"/>
        <gui-settings-file value="../../full_state_sumo_gui_settings.xml"/>
    </gui_only>

</configuration>
