<?xml version="1.0" encoding="UTF-8"?>

<!-- generated on 2025-03-17 22:35:41.909956 by osmWebWizard.py UNKNOWN
<configuration>
    <net-file value="/Users/arseneclaustre/Sumo/2025-03-17-22-35-29/osm.net.xml.gz"/>
    <output-trip-file value="/Users/arseneclaustre/Sumo/2025-03-17-22-35-29/osm.passenger.trips.xml"/>
    <route-file value="/Users/arseneclaustre/Sumo/2025-03-17-22-35-29/osm.passenger.rou.xml"/>
    <prefix value="veh"/>
    <trip-attributes value="departLane=&quot;best&quot;"/>
    <fringe-start-attributes value="departSpeed=&quot;max&quot;"/>
    <vehicle-class value="passenger"/>
    <lanes value="True"/>
    <fringe-factor value="5"/>
    <allow-fringe.min-length value="1000.0"/>
    <via-edge-types value="highway.motorway,highway.motorway_link,highway.trunk_link,highway.primary_link,highway.secondary_link,highway.tertiary_link"/>
    <min-distance value="300.0"/>
    <min-distance.fringe value="10.0"/>
    <remove-loops value="True"/>
    <validate value="True"/>
    <end value="130000.0"/>
    <insertion-density value="50.0"/>
</configuration>
-->

<!-- generated on 2025-03-17 22:35:41 by Eclipse SUMO duarouter Version 1.22.0
<duarouterConfiguration xmlns:xsi="http://www.w3.org/2001/XMLSchema-instance" xsi:noNamespaceSchemaLocation="http://sumo.dlr.de/xsd/duarouterConfiguration.xsd">

    <input>
        <net-file value="/Users/arseneclaustre/Sumo/2025-03-17-22-35-29/osm.net.xml.gz"/>
        <route-files value="/Users/arseneclaustre/Sumo/2025-03-17-22-35-29/osm.passenger.trips.xml"/>
    </input>

    <output>
        <output-file value="/Users/arseneclaustre/Sumo/2025-03-17-22-35-29/osm.passenger.trips.xml.tmp"/>
        <alternatives-output value="NUL"/>
        <write-trips value="true"/>
    </output>

    <processing>
        <remove-loops value="true"/>
    </processing>

    <time>
        <begin value="0.0"/>
        <end value="130000.0"/>
    </time>

    <report>
        <no-warnings value="true"/>
        <ignore-errors value="true"/>
        <no-step-log value="true"/>
    </report>

</duarouterConfiguration>
-->

<routes xmlns:xsi="http://www.w3.org/2001/XMLSchema-instance" xsi:noNamespaceSchemaLocation="http://sumo.dlr.de/xsd/routes_file.xsd">
    <vType id="veh_passenger" vClass="passenger"/>
    <trip id="veh0" type="veh_passenger" depart="0.00" departLane="best" from="1275533901" to="-879320960#1"/>
    <trip id="veh3" type="veh_passenger" depart="88.17" departLane="best" departSpeed="max" from="879320960#0" to="51111533#1"/>
    <trip id="veh4" type="veh_passenger" depart="117.56" departLane="best" departSpeed="max" from="879320960#0" to="368899834#0"/>
    <trip id="veh5" type="veh_passenger" depart="146.94" departLane="best" departSpeed="max" from="879320960#0" to="368899834#1"/>
    <trip id="veh6" type="veh_passenger" depart="176.33" departLane="best" departSpeed="max" from="879320960#0" to="757328921#0"/>
    <trip id="veh7" type="veh_passenger" depart="205.72" departLane="best" departSpeed="max" from="1283314821#0" to="51111533#1"/>
    <trip id="veh9" type="veh_passenger" depart="264.50" departLane="best" departSpeed="max" from="879320960#0" to="51111533#1"/>
    <trip id="veh10" type="veh_passenger" depart="293.89" departLane="best" from="-368899834#1" to="-879320960#1"/>
    <trip id="veh11" type="veh_passenger" depart="323.28" departLane="best" from="-757328920" to="-879320960#1"/>
    <trip id="veh12" type="veh_passenger" depart="352.67" departLane="best" departSpeed="max" from="-4039159#2" to="368899834#0"/>
    <trip id="veh13" type="veh_passenger" depart="382.05" departLane="best" from="-368899834#0" to="4039159#1"/>
    <trip id="veh14" type="veh_passenger" depart="411.44" departLane="best" departSpeed="max" from="680050129#0" to="4039159#1"/>
    <trip id="veh15" type="veh_passenger" depart="440.83" departLane="best" departSpeed="max" from="-4039159#2" to="368899834#1"/>
    <trip id="veh16" type="veh_passenger" depart="470.22" departLane="best" departSpeed="max" from="680050129#0" to="-879320960#1"/>
    <trip id="veh17" type="veh_passenger" depart="499.61" departLane="best" departSpeed="max" from="879320960#0" to="368899834#0"/>
    <trip id="veh18" type="veh_passenger" depart="529.00" departLane="best" departSpeed="max" from="-4039159#2" to="172654731"/>
    <trip id="veh22" type="veh_passenger" depart="646.55" departLane="best" departSpeed="max" from="64750311#0" to="-879320960#1"/>
    <trip id="veh24" type="veh_passenger" depart="705.33" departLane="best" departSpeed="max" from="-4039159#2" to="51111533#1"/>
    <trip id="veh25" type="veh_passenger" depart="734.72" departLane="best" from="-368899834#1" to="-879320960#1"/>
    <trip id="veh26" type="veh_passenger" depart="764.11" departLane="best" departSpeed="max" from="879320960#0" to="16875415"/>
    <trip id="veh27" type="veh_passenger" depart="793.50" departLane="best" from="-368899834#0" to="-879320960#1"/>
    <trip id="veh28" type="veh_passenger" depart="822.89" departLane="best" departSpeed="max" from="879320960#0" to="368899834#1"/>
    <trip id="veh30" type="veh_passenger" depart="881.67" departLane="best" departSpeed="max" from="879320960#0" to="368899834#1"/>
    <trip id="veh31" type="veh_passenger" depart="911.05" departLane="best" departSpeed="max" from="680050129#0" to="-879320960#1"/>
    <trip id="veh32" type="veh_passenger" depart="940.44" departLane="best" departSpeed="max" from="680050129#0" to="4039159#1"/>
    <trip id="veh33" type="veh_passenger" depart="969.83" departLane="best" departSpeed="max" from="879320960#0" to="368899834#0"/>
    <trip id="veh34" type="veh_passenger" depart="999.22" departLane="best" from="738141504#0" to="4039159#1"/>
    <trip id="veh35" type="veh_passenger" depart="1028.61" departLane="best" departSpeed="max" from="879320960#0" to="51111533#1"/>
    <trip id="veh37" type="veh_passenger" depart="1087.39" departLane="best" departSpeed="max" from="-4039159#2" to="368899834#1"/>
    <trip id="veh38" type="veh_passenger" depart="1116.78" departLane="best" departSpeed="max" from="-4039159#2" to="3127158#1"/>
    <trip id="veh39" type="veh_passenger" depart="1146.16" departLane="best" from="-757328920" to="-879320960#1"/>
    <trip id="veh40" type="veh_passenger" depart="1175.55" departLane="best" departSpeed="max" from="879320960#0" to="51111533#1"/>
    <trip id="veh41" type="veh_passenger" depart="1204.94" departLane="best" from="1275533901" to="4039159#1"/>
    <trip id="veh44" type="veh_passenger" depart="1293.11" departLane="best" departSpeed="max" from="879320960#0" to="3127158#1"/>
    <trip id="veh45" type="veh_passenger" depart="1322.50" departLane="best" departSpeed="max" from="879320960#0" to="757328921#0"/>
    <trip id="veh46" type="veh_passenger" depart="1351.89" departLane="best" departSpeed="max" from="64750311#0" to="4039159#1"/>
    <trip id="veh47" type="veh_passenger" depart="1381.28" departLane="best" from="-368899834#1" to="-879320960#1"/>
    <trip id="veh49" type="veh_passenger" depart="1440.05" departLane="best" departSpeed="max" from="879320960#0" to="172654731"/>
    <trip id="veh50" type="veh_passenger" depart="1469.44" departLane="best" departSpeed="max" from="879320960#0" to="-1196435325"/>
    <trip id="veh51" type="veh_passenger" depart="1498.83" departLane="best" departSpeed="max" from="680050129#0" to="-879320960#1"/>
    <trip id="veh52" type="veh_passenger" depart="1528.22" departLane="best" departSpeed="max" from="-4039159#2" to="757328921#1"/>
    <trip id="veh53" type="veh_passenger" depart="1557.61" departLane="best" departSpeed="max" from="-4039159#2" to="368899834#1"/>
    <trip id="veh54" type="veh_passenger" depart="1587.00" departLane="best" from="64750311#2" to="-879320960#1"/>
    <trip id="veh56" type="veh_passenger" depart="1645.77" departLane="best" from="738141504#0" to="4039159#1"/>
    <trip id="veh57" type="veh_passenger" depart="1675.16" departLane="best" from="51111535" to="4039159#1"/>
    <trip id="veh58" type="veh_passenger" depart="1704.55" departLane="best" departSpeed="max" from="1283314821#0" to="51111533#1"/>
    <trip id="veh59" type="veh_passenger" depart="1733.94" departLane="best" departSpeed="max" from="64750311#0" to="-879320960#1"/>
    <trip id="veh61" type="veh_passenger" depart="1792.72" departLane="best" departSpeed="max" from="680050129#0" to="-879320960#1"/>
    <trip id="veh62" type="veh_passenger" depart="1822.11" departLane="best" departSpeed="max" from="680050129#0" to="4039159#1"/>
    <trip id="veh63" type="veh_passenger" depart="1851.50" departLane="best" departSpeed="max" from="-4039159#2" to="51111533#1"/>
    <trip id="veh64" type="veh_passenger" depart="1880.89" departLane="best" departSpeed="max" from="-4039159#2" to="168094366"/>
    <trip id="veh65" type="veh_passenger" depart="1910.27" departLane="best" departSpeed="max" from="1283314821#0" to="51111533#1"/>
    <trip id="veh66" type="veh_passenger" depart="1939.66" departLane="best" departSpeed="max" from="879320960#0" to="53793441#1"/>
    <trip id="veh67" type="veh_passenger" depart="1969.05" departLane="best" departSpeed="max" from="64750311#0" to="-879320960#1"/>
    <trip id="veh69" type="veh_passenger" depart="2027.83" departLane="best" departSpeed="max" from="-4039159#2" to="53793441#1"/>
    <trip id="veh70" type="veh_passenger" depart="2057.22" departLane="best" departSpeed="max" from="-4039159#2" to="168094366"/>
    <trip id="veh71" type="veh_passenger" depart="2086.61" departLane="best" departSpeed="max" from="1283314821#0" to="51111533#1"/>
    <trip id="veh72" type="veh_passenger" depart="2116.00" departLane="best" departSpeed="max" from="-4039159#2" to="51111533#1"/>
    <trip id="veh73" type="veh_passenger" depart="2145.38" departLane="best" departSpeed="max" from="879320960#0" to="51111533#1"/>
    <trip id="veh74" type="veh_passenger" depart="2174.77" departLane="best" departSpeed="max" from="879320960#0" to="53793441#1"/>
    <trip id="veh75" type="veh_passenger" depart="2204.16" departLane="best" departSpeed="max" from="879320960#0" to="51111533#1"/>
    <trip id="veh76" type="veh_passenger" depart="2233.55" departLane="best" departSpeed="max" from="64750311#0" to="4039159#1"/>
    <trip id="veh77" type="veh_passenger" depart="2262.94" departLane="best" departSpeed="max" from="879320960#0" to="368899834#1"/>
    <trip id="veh79" type="veh_passenger" depart="2321.72" departLane="best" departSpeed="max" from="879320960#0" to="368899834#0"/>
    <trip id="veh80" type="veh_passenger" depart="2351.11" departLane="best" departSpeed="max" from="879320960#0" to="16875415"/>
    <trip id="veh81" type="veh_passenger" depart="2380.50" departLane="best" departSpeed="max" from="1283314821#0" to="51111533#1"/>
    <trip id="veh82" type="veh_passenger" depart="2409.88" departLane="best" departSpeed="max" from="1283314821#0" to="51111533#1"/>
    <trip id="veh83" type="veh_passenger" depart="2439.27" departLane="best" departSpeed="max" from="879320960#0" to="368899834#0"/>
    <trip id="veh84" type="veh_passenger" depart="2468.66" departLane="best" departSpeed="max" from="-4039159#2" to="53793441#1"/>
    <trip id="veh85" type="veh_passenger" depart="2498.05" departLane="best" departSpeed="max" from="1283314821#0" to="51111533#1"/>
    <trip id="veh86" type="veh_passenger" depart="2527.44" departLane="best" from="1165954372#1" to="4039159#1"/>
    <trip id="veh87" type="veh_passenger" depart="2556.83" departLane="best" departSpeed="max" from="1283314821#0" to="51111533#1"/>
    <trip id="veh88" type="veh_passenger" depart="2586.22" departLane="best" departSpeed="max" from="879320960#0" to="757328921#1"/>
    <trip id="veh89" type="veh_passenger" depart="2615.61" departLane="best" departSpeed="max" from="680050129#0" to="4039159#1"/>
    <trip id="veh90" type="veh_passenger" depart="2645.00" departLane="best" departSpeed="max" from="64750311#0" to="-879320960#1"/>
    <trip id="veh91" type="veh_passenger" depart="2674.38" departLane="best" departSpeed="max" from="680050129#0" to="4039159#1"/>
    <trip id="veh92" type="veh_passenger" depart="2703.77" departLane="best" departSpeed="max" from="879320960#0" to="-1196435325"/>
    <trip id="veh95" type="veh_passenger" depart="2791.94" departLane="best" departSpeed="max" from="-4039159#2" to="51111533#1"/>
    <trip id="veh96" type="veh_passenger" depart="2821.33" departLane="best" departSpeed="max" from="879320960#0" to="51111533#1"/>
    <trip id="veh97" type="veh_passenger" depart="2850.72" departLane="best" departSpeed="max" from="680050129#0" to="4039159#1"/>
    <trip id="veh98" type="veh_passenger" depart="2880.11" departLane="best" departSpeed="max" from="879320960#0" to="368899834#1"/>
    <trip id="veh102" type="veh_passenger" depart="2997.66" departLane="best" departSpeed="max" from="879320960#0" to="16875415"/>
    <trip id="veh103" type="veh_passenger" depart="3027.05" departLane="best" departSpeed="max" from="879320960#0" to="172654731"/>
    <trip id="veh104" type="veh_passenger" depart="3056.44" departLane="best" departSpeed="max" from="879320960#0" to="3127158#1"/>
    <trip id="veh105" type="veh_passenger" depart="3085.83" departLane="best" from="-757328920" to="4039159#1"/>
    <trip id="veh106" type="veh_passenger" depart="3115.22" departLane="best" from="-368899834#1" to="4039159#1"/>
    <trip id="veh107" type="veh_passenger" depart="3144.61" departLane="best" departSpeed="max" from="64750311#0" to="4039159#1"/>
    <trip id="veh108" type="veh_passenger" depart="3173.99" departLane="best" departSpeed="max" from="64750311#0" to="-879320960#1"/>
    <trip id="veh110" type="veh_passenger" depart="3232.77" departLane="best" departSpeed="max" from="879320960#0" to="172654731"/>
    <trip id="veh111" type="veh_passenger" depart="3262.16" departLane="best" departSpeed="max" from="680050129#0" to="4039159#1"/>
    <trip id="veh112" type="veh_passenger" depart="3291.55" departLane="best" departSpeed="max" from="-4039159#2" to="1165954372#1"/>
    <trip id="veh113" type="veh_passenger" depart="3320.94" departLane="best" departSpeed="max" from="1283314821#0" to="51111533#1"/>
    <trip id="veh114" type="veh_passenger" depart="3350.33" departLane="best" departSpeed="max" from="-4039159#2" to="168404431#0"/>
    <trip id="veh115" type="veh_passenger" depart="3379.72" departLane="best" departSpeed="max" from="879320960#0" to="368899834#0"/>
    <trip id="veh116" type="veh_passenger" depart="3409.10" departLane="best" from="-757328920" to="4039159#1"/>
    <trip id="veh117" type="veh_passenger" depart="3438.49" departLane="best" departSpeed="max" from="879320960#0" to="168094366"/>
    <trip id="veh120" type="veh_passenger" depart="3526.66" departLane="best" departSpeed="max" from="879320960#0" to="3127158#1"/>
    <trip id="veh121" type="veh_passenger" depart="3556.05" departLane="best" departSpeed="max" from="680050129#0" to="4039159#1"/>
    <trip id="veh122" type="veh_passenger" depart="3585.44" departLane="best" departSpeed="max" from="879320960#0" to="368899834#1"/>
    <trip id="veh125" type="veh_passenger" depart="3673.60" departLane="best" from="-368899834#0" to="4039159#1"/>
    <trip id="veh126" type="veh_passenger" depart="3702.99" departLane="best" from="64750311#2" to="-879320960#1"/>
    <trip id="veh127" type="veh_passenger" depart="3732.38" departLane="best" departSpeed="max" from="1283314821#0" to="51111533#1"/>
    <trip id="veh128" type="veh_passenger" depart="3761.77" departLane="best" departSpeed="max" from="680050129#0" to="-879320960#1"/>
    <trip id="veh129" type="veh_passenger" depart="3791.16" departLane="best" departSpeed="max" from="879320960#0" to="-1196435325"/>
    <trip id="veh130" type="veh_passenger" depart="3820.55" departLane="best" departSpeed="max" from="879320960#0" to="53793441#1"/>
    <trip id="veh131" type="veh_passenger" depart="3849.94" departLane="best" departSpeed="max" from="879320960#0" to="-1196435325"/>
    <trip id="veh132" type="veh_passenger" depart="3879.33" departLane="best" departSpeed="max" from="680050129#0" to="-879320960#1"/>
    <trip id="veh133" type="veh_passenger" depart="3908.72" departLane="best" departSpeed="max" from="-4039159#2" to="-1196435325"/>
    <trip id="veh134" type="veh_passenger" depart="3938.10" departLane="best" departSpeed="max" from="64750311#0" to="4039159#1"/>
    <trip id="veh135" type="veh_passenger" depart="3967.49" departLane="best" departSpeed="max" from="-4039159#2" to="757328921#1"/>
    <trip id="veh136" type="veh_passenger" depart="3996.88" departLane="best" from="-757328920" to="4039159#1"/>
    <trip id="veh137" type="veh_passenger" depart="4026.27" departLane="best" from="-757328920" to="-879320960#1"/>
    <trip id="veh138" type="veh_passenger" depart="4055.66" departLane="best" departSpeed="max" from="879320960#0" to="368899834#1"/>
    <trip id="veh139" type="veh_passenger" depart="4085.05" departLane="best" departSpeed="max" from="879320960#0" to="368899834#0"/>
    <trip id="veh140" type="veh_passenger" depart="4114.44" departLane="best" from="-368899834#1" to="4039159#1"/>
    <trip id="veh141" type="veh_passenger" depart="4143.83" departLane="best" departSpeed="max" from="879320960#0" to="168094366"/>
    <trip id="veh142" type="veh_passenger" depart="4173.21" departLane="best" departSpeed="max" from="879320960#0" to="16875415"/>
    <trip id="veh143" type="veh_passenger" depart="4202.60" departLane="best" departSpeed="max" from="879320960#0" to="51111533#1"/>
    <trip id="veh144" type="veh_passenger" depart="4231.99" departLane="best" departSpeed="max" from="680050129#0" to="-879320960#1"/>
    <trip id="veh145" type="veh_passenger" depart="4261.38" departLane="best" departSpeed="max" from="879320960#0" to="-1196435325"/>
    <trip id="veh147" type="veh_passenger" depart="4320.16" departLane="best" departSpeed="max" from="-4039159#2" to="168094366"/>
    <trip id="veh149" type="veh_passenger" depart="4378.94" departLane="best" departSpeed="max" from="879320960#0" to="3127158#1"/>
    <trip id="veh150" type="veh_passenger" depart="4408.33" departLane="best" departSpeed="max" from="-4039159#2" to="1165954372#1"/>
    <trip id="veh151" type="veh_passenger" depart="4437.71" departLane="best" departSpeed="max" from="-4039159#2" to="-1196435325"/>
    <trip id="veh152" type="veh_passenger" depart="4467.10" departLane="best" from="-757328920" to="4039159#1"/>
    <trip id="veh153" type="veh_passenger" depart="4496.49" departLane="best" departSpeed="max" from="680050129#0" to="-879320960#1"/>
    <trip id="veh154" type="veh_passenger" depart="4525.88" departLane="best" departSpeed="max" from="-4039159#2" to="168404431#0"/>
    <trip id="veh156" type="veh_passenger" depart="4584.66" departLane="best" departSpeed="max" from="680050129#0" to="4039159#1"/>
    <trip id="veh157" type="veh_passenger" depart="4614.05" departLane="best" departSpeed="max" from="879320960#0" to="51111533#1"/>
    <trip id="veh158" type="veh_passenger" depart="4643.44" departLane="best" departSpeed="max" from="1283314821#0" to="51111533#1"/>
    <trip id="veh159" type="veh_passenger" depart="4672.82" departLane="best" departSpeed="max" from="879320960#0" to="368899834#1"/>
    <trip id="veh160" type="veh_passenger" depart="4702.21" departLane="best" departSpeed="max" from="680050129#0" to="4039159#1"/>
    <trip id="veh161" type="veh_passenger" depart="4731.60" departLane="best" from="-757328920" to="-879320960#1"/>
    <trip id="veh163" type="veh_passenger" depart="4790.38" departLane="best" departSpeed="max" from="680050129#0" to="-879320960#1"/>
    <trip id="veh164" type="veh_passenger" depart="4819.77" departLane="best" departSpeed="max" from="-4039159#2" to="53793441#1"/>
    <trip id="veh165" type="veh_passenger" depart="4849.16" departLane="best" departSpeed="max" from="879320960#0" to="16875415"/>
    <trip id="veh166" type="veh_passenger" depart="4878.55" departLane="best" departSpeed="max" from="-4039159#2" to="168404431#0"/>
    <trip id="veh167" type="veh_passenger" depart="4907.94" departLane="best" departSpeed="max" from="1283314821#0" to="51111533#1"/>
    <trip id="veh168" type="veh_passenger" depart="4937.32" departLane="best" departSpeed="max" from="879320960#0" to="51111533#1"/>
    <trip id="veh169" type="veh_passenger" depart="4966.71" departLane="best" departSpeed="max" from="879320960#0" to="368899834#0"/>
    <trip id="veh170" type="veh_passenger" depart="4996.10" departLane="best" from="-757328920" to="4039159#1"/>
    <trip id="veh171" type="veh_passenger" depart="5025.49" departLane="best" departSpeed="max" from="680050129#0" to="4039159#1"/>
    <trip id="veh173" type="veh_passenger" depart="5084.27" departLane="best" departSpeed="max" from="-4039159#2" to="1165954372#1"/>
    <trip id="veh174" type="veh_passenger" depart="5113.66" departLane="best" from="-757328920" to="4039159#1"/>
    <trip id="veh176" type="veh_passenger" depart="5172.43" departLane="best" departSpeed="max" from="680050129#0" to="4039159#1"/>
    <trip id="veh177" type="veh_passenger" depart="5201.82" departLane="best" departSpeed="max" from="-4039159#2" to="168404431#0"/>
    <trip id="veh178" type="veh_passenger" depart="5231.21" departLane="best" departSpeed="max" from="879320960#0" to="3127158#1"/>
    <trip id="veh179" type="veh_passenger" depart="5260.60" departLane="best" from="-368899834#0" to="4039159#1"/>
    <trip id="veh180" type="veh_passenger" depart="5289.99" departLane="best" departSpeed="max" from="-4039159#2" to="-1196435325"/>
    <trip id="veh181" type="veh_passenger" depart="5319.38" departLane="best" departSpeed="max" from="-4039159#2" to="51111533#1"/>
    <trip id="veh182" type="veh_passenger" depart="5348.77" departLane="best" departSpeed="max" from="879320960#0" to="51111533#1"/>
    <trip id="veh183" type="veh_passenger" depart="5378.16" departLane="best" from="-368899834#1" to="-879320960#1"/>
    <trip id="veh184" type="veh_passenger" depart="5407.55" departLane="best" departSpeed="max" from="-4039159#2" to="51111533#1"/>
    <trip id="veh185" type="veh_passenger" depart="5436.93" departLane="best" departSpeed="max" from="879320960#0" to="757328921#1"/>
    <trip id="veh187" type="veh_passenger" depart="5495.71" departLane="best" departSpeed="max" from="-4039159#2" to="51111533#1"/>
    <trip id="veh188" type="veh_passenger" depart="5525.10" departLane="best" from="-757328920" to="-879320960#1"/>
    <trip id="veh189" type="veh_passenger" depart="5554.49" departLane="best" departSpeed="max" from="680050129#0" to="4039159#1"/>
    <trip id="veh190" type="veh_passenger" depart="5583.88" departLane="best" departSpeed="max" from="-4039159#2" to="51111533#1"/>
    <trip id="veh193" type="veh_passenger" depart="5672.05" departLane="best" from="-757328920" to="-879320960#1"/>
    <trip id="veh194" type="veh_passenger" depart="5701.43" departLane="best" departSpeed="max" from="879320960#0" to="-1196435325"/>
    <trip id="veh195" type="veh_passenger" depart="5730.82" departLane="best" departSpeed="max" from="879320960#0" to="3127158#1"/>
    <trip id="veh198" type="veh_passenger" depart="5818.99" departLane="best" departSpeed="max" from="879320960#0" to="368899834#0"/>
    <trip id="veh200" type="veh_passenger" depart="5877.77" departLane="best" departSpeed="max" from="879320960#0" to="53793441#1"/>
    <trip id="veh201" type="veh_passenger" depart="5907.16" departLane="best" from="-368899834#0" to="-879320960#1"/>
    <trip id="veh202" type="veh_passenger" depart="5936.54" departLane="best" from="1275533901" to="-879320960#1"/>
    <trip id="veh203" type="veh_passenger" depart="5965.93" departLane="best" from="-368899834#1" to="4039159#1"/>
    <trip id="veh204" type="veh_passenger" depart="5995.32" departLane="best" departSpeed="max" from="1283314821#0" to="51111533#1"/>
    <trip id="veh205" type="veh_passenger" depart="6024.71" departLane="best" departSpeed="max" from="879320960#0" to="53793441#1"/>
    <trip id="veh206" type="veh_passenger" depart="6054.10" departLane="best" departSpeed="max" from="64750311#0" to="4039159#1"/>
    <trip id="veh207" type="veh_passenger" depart="6083.49" departLane="best" departSpeed="max" from="680050129#0" to="-879320960#1"/>
    <trip id="veh208" type="veh_passenger" depart="6112.88" departLane="best" departSpeed="max" from="680050129#0" to="-879320960#1"/>
    <trip id="veh209" type="veh_passenger" depart="6142.27" departLane="best" departSpeed="max" from="879320960#0" to="368899834#1"/>
    <trip id="veh210" type="veh_passenger" depart="6171.66" departLane="best" departSpeed="max" from="879320960#0" to="51111533#1"/>
    <trip id="veh211" type="veh_passenger" depart="6201.04" departLane="best" departSpeed="max" from="-4039159#2" to="757328921#1"/>
    <trip id="veh212" type="veh_passenger" depart="6230.43" departLane="best" departSpeed="max" from="1283314821#0" to="51111533#1"/>
    <trip id="veh213" type="veh_passenger" depart="6259.82" departLane="best" from="-368899834#1" to="-879320960#1"/>
    <trip id="veh214" type="veh_passenger" depart="6289.21" departLane="best" from="1275533901" to="4039159#1"/>
    <trip id="veh215" type="veh_passenger" depart="6318.60" departLane="best" departSpeed="max" from="64750311#0" to="4039159#1"/>
    <trip id="veh217" type="veh_passenger" depart="6377.38" departLane="best" departSpeed="max" from="-4039159#2" to="368899834#0"/>
    <trip id="veh218" type="veh_passenger" depart="6406.77" departLane="best" departSpeed="max" from="-4039159#2" to="3127158#1"/>
    <trip id="veh219" type="veh_passenger" depart="6436.15" departLane="best" departSpeed="max" from="-4039159#2" to="53793441#1"/>
    <trip id="veh220" type="veh_passenger" depart="6465.54" departLane="best" departSpeed="max" from="64750311#0" to="-879320960#1"/>
    <trip id="veh221" type="veh_passenger" depart="6494.93" departLane="best" departSpeed="max" from="879320960#0" to="368899834#0"/>
    <trip id="veh222" type="veh_passenger" depart="6524.32" departLane="best" departSpeed="max" from="-4039159#2" to="757328921#1"/>
    <trip id="veh223" type="veh_passenger" depart="6553.71" departLane="best" departSpeed="max" from="879320960#0" to="757328921#1"/>
    <trip id="veh225" type="veh_passenger" depart="6612.49" departLane="best" departSpeed="max" from="1283314821#0" to="51111533#1"/>
    <trip id="veh226" type="veh_passenger" depart="6641.88" departLane="best" departSpeed="max" from="680050129#0" to="4039159#1"/>
    <trip id="veh227" type="veh_passenger" depart="6671.27" departLane="best" departSpeed="max" from="879320960#0" to="53793441#1"/>
    <trip id="veh228" type="veh_passenger" depart="6700.65" departLane="best" departSpeed="max" from="-4039159#2" to="757328921#1"/>
    <trip id="veh232" type="veh_passenger" depart="6818.21" departLane="best" departSpeed="max" from="879320960#0" to="-1196435325"/>
    <trip id="veh233" type="veh_passenger" depart="6847.60" departLane="best" departSpeed="max" from="-4039159#2" to="757328921#1"/>
    <trip id="veh235" type="veh_passenger" depart="6906.38" departLane="best" from="738141504#0" to="4039159#1"/>
    <trip id="veh236" type="veh_passenger" depart="6935.76" departLane="best" departSpeed="max" from="-4039159#2" to="368899834#1"/>
    <trip id="veh237" type="veh_passenger" depart="6965.15" departLane="best" departSpeed="max" from="879320960#0" to="3127158#1"/>
    <trip id="veh238" type="veh_passenger" depart="6994.54" departLane="best" departSpeed="max" from="879320960#0" to="51111533#1"/>
    <trip id="veh239" type="veh_passenger" depart="7023.93" departLane="best" departSpeed="max" from="680050129#0" to="4039159#1"/>
    <trip id="veh240" type="veh_passenger" depart="7053.32" departLane="best" departSpeed="max" from="680050129#0" to="-879320960#1"/>
    <trip id="veh241" type="veh_passenger" depart="7082.71" departLane="best" departSpeed="max" from="1283314821#0" to="51111533#1"/>
    <trip id="veh242" type="veh_passenger" depart="7112.10" departLane="best" departSpeed="max" from="879320960#0" to="3127158#1"/>
    <trip id="veh243" type="veh_passenger" depart="7141.49" departLane="best" departSpeed="max" from="879320960#0" to="172654731"/>
    <trip id="veh244" type="veh_passenger" depart="7170.88" departLane="best" departSpeed="max" from="879320960#0" to="51111533#1"/>
    <trip id="veh245" type="veh_passenger" depart="7200.26" departLane="best" departSpeed="max" from="879320960#0" to="51111533#1"/>
    <trip id="veh246" type="veh_passenger" depart="7229.65" departLane="best" departSpeed="max" from="879320960#0" to="51111533#1"/>
    <trip id="veh248" type="veh_passenger" depart="7288.43" departLane="best" departSpeed="max" from="-4039159#2" to="51111533#1"/>
    <trip id="veh249" type="veh_passenger" depart="7317.82" departLane="best" departSpeed="max" from="879320960#0" to="51111533#1"/>
    <trip id="veh250" type="veh_passenger" depart="7347.21" departLane="best" departSpeed="max" from="680050129#0" to="-879320960#1"/>
    <trip id="veh251" type="veh_passenger" depart="7376.60" departLane="best" departSpeed="max" from="879320960#0" to="51111533#1"/>
    <trip id="veh252" type="veh_passenger" depart="7405.99" departLane="best" departSpeed="max" from="-4039159#2" to="53793441#1"/>
    <trip id="veh253" type="veh_passenger" depart="7435.38" departLane="best" from="1165954372#1" to="4039159#1"/>
    <trip id="veh254" type="veh_passenger" depart="7464.76" departLane="best" departSpeed="max" from="879320960#0" to="368899834#1"/>
    <trip id="veh255" type="veh_passenger" depart="7494.15" departLane="best" departSpeed="max" from="1283314821#0" to="51111533#1"/>
    <trip id="veh256" type="veh_passenger" depart="7523.54" departLane="best" departSpeed="max" from="879320960#0" to="51111533#1"/>
    <trip id="veh257" type="veh_passenger" depart="7552.93" departLane="best" departSpeed="max" from="1283314821#0" to="51111533#1"/>
    <trip id="veh258" type="veh_passenger" depart="7582.32" departLane="best" departSpeed="max" from="680050129#0" to="-879320960#1"/>