<?xml version="1.0" encoding="UTF-8"?>
<routes xmlns:xsi="http://www.w3.org/2001/XMLSchema-instance" xsi:noNamespaceSchemaLocation="http://sumo.dlr.de/xsd/routes_file.xsd">

<!-- Vehicules Types -->
<vType id="cautious" guiShape="passenger" accel="2" decel="5" sigma="0.3" length="4"
       minGap="1.5" maxSpeed="30" color="0,0,1" carFollowModel="Krauss"/>

<vType id="aggressive" guiShape="passenger" accel="5" decel="10" sigma="0.9" length="4"
       minGap="0.5" maxSpeed="40" color="1,0,0" carFollowModel="IDM"/>

<vType id="motorcycle" guiShape="motorcycle" accel="6" decel="8" sigma="0.8" length="2"
       minGap="0.3" maxSpeed="50" color="1,1,1" carFollowModel="Krauss"/>

<vType id="truck" guiShape="truck" accel="3" decel="5" sigma="1.0" length="8"
       minGap="2.5" maxSpeed="25" color="1,1,1" carFollowModel="IDM"/>

<vType id="bus" guiShape="bus" accel="1.2" decel="4" sigma="0.6" length="11"
       minGap="3.0" maxSpeed="20" color="1,1,0" carFollowModel="Krauss"/>



    <!-- Routes -->
    <route id="r_A_B" edges="end_A_junction_1 end_A_end_B"/>
    <route id="r_A_C" edges="end_A_junction_1 junction_1_junction_7 -junction_7_junction_2 junction_2_end_C"/>
    <route id="r_A_D" edges="end_A_junction_1 junction_1_junction_7 -junction_7_junction_2 junction_2_end_D"/>
    <route id="r_A_E" edges="end_A_junction_1 junction_1_junction_6 junction_6_junction_8 junction_8_junction_3 junction_3_end_E"/>
    <route id="r_A_F" edges="end_A_junction_1 junction_1_junction_7 junction_7_junction_8 junction_8_junction_9 junction_9_junction_4 junction_4_end_F"/>
    <route id="r_A_G" edges="end_A_junction_1 junction_1_junction_6 junction_6_junction_8 junction_8_junction_3 junction_3_junction_4 junction_4_end_G"/>
    <route id="r_A_H" edges="end_A_junction_1 junction_1_junction_6 junction_6_junction_5 junction_5_end_H"/>
    <route id="r_A_I" edges="end_A_junction_1 junction_1_junction_6 junction_6_junction_5 junction_5_end_I"/>
    <route id="r_A_J" edges="end_A_junction_1 junction_1_junction_6 junction_6_end_J"/>
    <route id="r_A_L" edges="end_A_junction_1 junction_1_junction_7 junction_7_junction_8 junction_8_junction_9 junction_9_end_L"/>
    <route id="r_A_K" edges="end_A_junction_1 junction_1_junction_7 junction_7_end_K"/>
    <route id="r_B_A" edges="end_B_junction_1 junction_1_end_A"/>
    <route id="r_B_C" edges="end_B_junction_1 junction_1_junction_7 -junction_7_junction_2 junction_2_end_C"/>
    <route id="r_B_D" edges="end_B_junction_1 junction_1_junction_7 -junction_7_junction_2 junction_2_end_D"/>
    <route id="r_B_E" edges="end_B_junction_1 junction_1_junction_6 junction_6_junction_8 junction_8_junction_3 junction_3_end_E"/>
    <route id="r_B_F" edges="end_B_junction_1 junction_1_junction_6 junction_6_junction_8 junction_8_junction_3 junction_3_junction_4 junction_4_end_F"/>
    <route id="r_B_G" edges="end_B_junction_1 junction_1_junction_6 junction_6_junction_8 junction_8_junction_3 junction_3_junction_4 junction_4_end_G"/>
    <route id="r_B_H" edges="end_B_junction_1 junction_1_junction_6 junction_6_junction_5 junction_5_end_H"/>
    <route id="r_B_I" edges="end_B_junction_1 junction_1_junction_6 junction_6_junction_5 junction_5_end_I"/>
    <route id="r_B_J" edges="end_B_junction_1 junction_1_junction_6 junction_6_end_J"/>
    <route id="r_B_K" edges="end_B_junction_1 junction_1_junction_7 junction_7_end_K"/>
    <route id="r_B_L" edges="end_B_junction_1 junction_1_junction_7 junction_7_junction_8 junction_8_junction_9 junction_9_end_L"/>
    <route id="r_C_A" edges="end_C_junction_2 junction_2_junction_7 -junction_7_junction_1 junction_1_end_A"/>
    <route id="r_C_B" edges="end_C_junction_2 junction_2_junction_7 -junction_7_junction_1 end_A_end_B"/>
    <route id="r_C_D" edges="end_C_junction_2 junction_2_end_D"/>
    <route id="r_C_E" edges="end_C_junction_2 junction_2_junction_3 junction_3_end_E"/>
    <route id="r_C_F" edges="end_C_junction_2 junction_2_junction_3 junction_3_junction_4 junction_4_end_F"/>
    <route id="r_C_G" edges="end_C_junction_2 junction_2_junction_3 junction_3_junction_4 junction_4_end_G"/>
    <route id="r_C_H" edges="end_C_junction_2 junction_2_junction_3 junction_3_junction_8 -junction_6_junction_8 junction_6_junction_5 junction_5_end_H"/>
    <route id="r_C_I" edges="end_C_junction_2 junction_2_junction_3 junction_3_junction_8 -junction_6_junction_8 junction_6_end_J"/>
    <route id="r_C_J" edges="end_C_junction_2 junction_2_junction_3 junction_3_junction_8 -junction_6_junction_8 junction_6_end_J"/>
    <route id="r_C_K" edges="end_C_junction_2 junction_2_junction_7 junction_7_end_K"/>
    <route id="r_C_L" edges="end_C_junction_2 junction_2_junction_7 junction_7_junction_8 junction_8_junction_9 junction_9_end_L"/>
    <route id="r_D_A" edges="end_D_junction_2 junction_2_junction_7 -junction_7_junction_1 junction_1_end_A"/>
    <route id="r_D_B" edges="end_D_junction_2 junction_2_junction_7 -junction_7_junction_1 end_A_end_B"/>
    <route id="r_D_C" edges="end_D_junction_2 junction_2_end_C"/>
    <route id="r_D_E" edges="end_D_junction_2 junction_2_junction_3 junction_3_end_E"/>
    <route id="r_D_F" edges="end_D_junction_2 junction_2_junction_3 junction_3_junction_4 junction_4_end_F"/>
    <route id="r_D_G" edges="end_D_junction_2 junction_2_junction_3 junction_3_junction_4 junction_4_end_G"/>
    <route id="r_D_H" edges="end_D_junction_2 junction_2_junction_3 junction_3_junction_8 -junction_6_junction_8 junction_6_junction_5 junction_5_end_H"/>
    <route id="r_D_I" edges="end_D_junction_2 junction_2_junction_3 junction_3_junction_8 -junction_6_junction_8 junction_6_junction_5 junction_5_end_H"/>
    <route id="r_D_J" edges="end_D_junction_2 junction_2_junction_3 junction_3_junction_8 -junction_6_junction_8 junction_6_end_J"/>
    <route id="r_D_K" edges="end_D_junction_2 junction_2_junction_7 junction_7_end_K"/>
    <route id="r_D_L" edges="end_D_junction_2 junction_2_junction_7 junction_7_junction_8 junction_8_junction_9 junction_9_end_L"/>
    <route id="r_E_A" edges="end_E_junction_3 junction_3_junction_8 -junction_6_junction_8 junction_6_junction_1 junction_1_end_A"/>
    <route id="r_E_B" edges="end_E_junction_3 junction_3_junction_8 -junction_6_junction_8 junction_6_junction_1 end_A_end_B"/>
    <route id="r_E_C" edges="end_E_junction_3 junction_3_junction_2 junction_2_end_C"/>
    <route id="r_E_D" edges="end_E_junction_3 junction_3_junction_2 junction_2_end_D"/>
    <route id="r_E_F" edges="end_E_junction_3 junction_3_junction_4 junction_4_end_F"/>
    <route id="r_E_G" edges="end_E_junction_3 junction_3_junction_4 junction_4_end_G"/>
    <route id="r_E_H" edges="end_E_junction_3 junction_3_junction_8 -junction_6_junction_8 junction_6_junction_5 junction_5_end_H"/>
    <route id="r_E_I" edges="end_E_junction_3 junction_3_junction_8 -junction_6_junction_8 junction_6_junction_5 junction_5_end_I"/>
    <route id="r_E_J" edges="end_E_junction_3 junction_3_junction_8 -junction_6_junction_8 junction_6_end_J"/>
    <route id="r_E_K" edges="end_E_junction_3 junction_3_junction_8 junction_8_junction_7 junction_7_end_K"/>
    <route id="r_E_L" edges="end_E_junction_3 junction_3_junction_8 junction_8_junction_9 junction_9_end_L"/>
    <route id="r_F_A" edges="end_F_junction_4"/>
    <route id="r_F_B" edges="end_F_junction_4 junction_4_junction_3 junction_3_junction_8 -junction_6_junction_8 junction_6_junction_1 end_A_end_B"/>
    <route id="r_F_C" edges="end_F_junction_4 junction_4_junction_3 junction_3_junction_2 junction_2_end_C"/>
    <route id="r_F_D" edges="end_F_junction_4 junction_4_junction_3 junction_3_junction_2 junction_2_end_D"/>
    <route id="r_F_E" edges="end_F_junction_4 junction_4_junction_3 junction_3_end_E"/>
    <route id="r_F_G" edges="end_F_junction_4 junction_4_end_G"/>
    <route id="r_F_H" edges="end_F_junction_4 junction_4_junction_9 junction_9_junction_5 junction_5_end_H"/>
    <route id="r_F_I" edges="end_F_junction_4 junction_4_junction_9 junction_9_junction_5 junction_5_end_I"/>
    <route id="r_F_J" edges="end_F_junction_4 junction_4_junction_3 junction_3_junction_8 -junction_6_junction_8 junction_6_end_J"/>
    <route id="r_F_K" edges="end_F_junction_4 junction_4_junction_9 junction_9_junction_8 junction_8_junction_7 junction_7_end_K"/>
    <route id="r_F_L" edges="end_F_junction_4 junction_4_junction_9 junction_9_end_L"/>
    <route id="r_G_A" edges="end_G_junction_4 junction_4_junction_3 junction_3_junction_8 -junction_6_junction_8 junction_6_junction_1 junction_1_end_A"/>
    <route id="r_G_B" edges="end_G_junction_4 junction_4_junction_3 junction_3_junction_8 -junction_6_junction_8 junction_6_junction_1 end_A_end_B"/>
    <route id="r_G_C" edges="end_G_junction_4 junction_4_junction_3 junction_3_junction_2 junction_2_end_C"/>
    <route id="r_G_D" edges="end_G_junction_4 junction_4_junction_3 junction_3_junction_2 junction_2_end_D"/>
    <route id="r_G_E" edges="end_G_junction_4 junction_4_junction_3 junction_3_end_E"/>
    <route id="r_G_F" edges="end_G_junction_4 junction_4_end_F"/>
    <route id="r_G_H" edges="end_G_junction_4 junction_4_junction_9 junction_9_junction_5 junction_5_end_H"/>
    <route id="r_G_I" edges="end_G_junction_4 junction_4_junction_9 junction_9_junction_5 junction_5_end_I"/>
    <route id="r_G_J" edges="end_G_junction_4 junction_4_junction_3 junction_3_junction_8 -junction_6_junction_8 junction_6_end_J"/>
    <route id="r_G_K" edges="end_G_junction_4 junction_4_junction_9 junction_9_junction_8 junction_8_junction_7 junction_7_end_K"/>
    <route id="r_G_L" edges="end_G_junction_4 junction_4_junction_9 junction_9_end_L"/>
    <route id="r_H_A" edges="end_H_junction_5 junction_5_junction_6 junction_6_junction_1 junction_1_end_A"/>
    <route id="r_H_B" edges="end_H_junction_5 junction_5_junction_6 junction_6_junction_1 end_A_end_B"/>
    <route id="r_H_C" edges="end_H_junction_5 junction_5_junction_6 junction_6_junction_8 junction_8_junction_3 junction_3_junction_2 junction_2_end_C"/>
    <route id="r_H_D" edges="end_H_junction_5 junction_5_junction_9 junction_9_junction_8 junction_8_junction_7 -junction_7_junction_2 junction_2_end_D"/>
    <route id="r_H_E" edges="end_H_junction_5 junction_5_junction_6 junction_6_junction_8 junction_8_junction_3 junction_3_end_E"/>
    <route id="r_H_F" edges="end_H_junction_5 junction_5_junction_9 junction_9_junction_4 junction_4_end_F"/>
    <route id="r_H_G" edges="end_H_junction_5 junction_5_junction_9 junction_9_junction_4 junction_4_end_G"/>
    <route id="r_H_I" edges="end_H_junction_5 junction_5_end_I"/>
    <route id="r_H_J" edges="end_H_junction_5 junction_5_junction_6 junction_6_end_J"/>
    <route id="r_H_K" edges="end_H_junction_5 junction_5_junction_9 junction_9_junction_8 junction_8_junction_7 junction_7_end_K"/>
    <route id="r_H_L" edges="end_H_junction_5 junction_5_junction_9 junction_9_end_L"/>
    <route id="r_I_A" edges="end_I_junction_5 junction_5_junction_6 junction_6_junction_1 junction_1_end_A"/>
    <route id="r_I_B" edges="end_I_junction_5 junction_5_junction_6 junction_6_junction_1 end_A_end_B"/>
    <route id="r_I_C" edges="end_I_junction_5 junction_5_junction_6 junction_6_junction_8 junction_8_junction_3 junction_3_junction_2 junction_2_end_C"/>
    <route id="r_I_D" edges="end_I_junction_5 junction_5_junction_9 junction_9_junction_8 junction_8_junction_7 -junction_7_junction_2 junction_2_end_D"/>
    <route id="r_I_E" edges="end_I_junction_5 junction_5_junction_6 junction_6_junction_8 junction_8_junction_3 junction_3_end_E"/>
    <route id="r_I_F" edges="end_I_junction_5 junction_5_junction_9 junction_9_junction_4 junction_4_end_F"/>
    <route id="r_I_G" edges="end_I_junction_5 junction_5_junction_9 junction_9_junction_4 junction_4_end_G"/>
    <route id="r_I_H" edges="end_I_junction_5 junction_5_end_H"/>
    <route id="r_I_J" edges="end_I_junction_5 junction_5_junction_6 junction_6_end_J"/>
    <route id="r_I_K" edges="end_I_junction_5 junction_5_junction_9 junction_9_junction_8 junction_8_junction_7 junction_7_end_K"/>
    <route id="r_I_L" edges="end_I_junction_5 junction_5_junction_9 junction_9_end_L"/>
    <route id="r_J_A" edges="end_J_junction_6 junction_6_junction_1 junction_1_end_A"/>
    <route id="r_J_B" edges="end_J_junction_6 junction_6_junction_1 end_A_end_B"/>
    <route id="r_J_C" edges="end_J_junction_6 junction_6_junction_8 junction_8_junction_3 junction_3_junction_2 junction_2_end_C"/>
    <route id="r_J_D" edges="end_J_junction_6 junction_6_junction_8 junction_8_junction_3 junction_3_junction_2 junction_2_end_D"/>
    <route id="r_J_E" edges="end_J_junction_6 junction_6_junction_8 junction_8_junction_3 junction_3_end_E"/>
    <route id="r_J_F" edges="end_J_junction_6 junction_6_junction_8 junction_8_junction_3 junction_3_junction_4 junction_4_end_F"/>
    <route id="r_J_G" edges="end_J_junction_6 junction_6_junction_8 junction_8_junction_3 junction_3_junction_4 junction_4_end_G"/>
    <route id="r_J_H" edges="end_J_junction_6 junction_6_junction_5 junction_5_end_H"/>
    <route id="r_J_I" edges="end_J_junction_6 junction_6_junction_5 junction_5_end_I"/>
    <route id="r_J_K" edges="end_J_junction_6 junction_6_junction_8 junction_8_junction_7 junction_7_end_K"/>
    <route id="r_J_L" edges="end_J_junction_6 junction_6_junction_8 junction_8_junction_9 junction_9_end_L"/>
    <route id="r_K_A" edges="end_K_junction_7 -junction_7_junction_1 junction_1_end_A"/>
    <route id="r_K_B" edges="end_K_junction_7 -junction_7_junction_1 end_A_end_B"/>
    <route id="r_K_C" edges="end_K_junction_7 -junction_7_junction_2 junction_2_end_C"/>
    <route id="r_K_D" edges="end_K_junction_7 -junction_7_junction_2 junction_2_end_D"/>
    <route id="r_K_E" edges="end_K_junction_7 junction_7_junction_8 junction_8_junction_3 junction_3_end_E"/>
    <route id="r_K_F" edges="end_K_junction_7 junction_7_junction_8 junction_8_junction_9 junction_9_junction_4 junction_4_end_F"/>
    <route id="r_K_G" edges="end_K_junction_7 junction_7_junction_8 junction_8_junction_9 junction_9_junction_4 junction_4_end_G"/>
    <route id="r_K_H" edges="end_K_junction_7 junction_7_junction_8 junction_8_junction_9 junction_9_junction_5 junction_5_end_H"/>
    <route id="r_K_I" edges="end_K_junction_7 junction_7_junction_8 junction_8_junction_9 junction_9_junction_5 junction_5_end_H"/>
    <route id="r_K_J" edges="end_K_junction_7 junction_7_junction_8 -junction_6_junction_8 junction_6_end_J"/>
    <route id="r_K_L" edges="end_K_junction_7 junction_7_junction_8 junction_8_junction_9 junction_9_end_L"/>
    <route id="r_L_A" edges="end_L_junction_9 junction_9_junction_8 junction_8_junction_7 -junction_7_junction_1 junction_1_end_A"/>
    <route id="r_L_B" edges="end_L_junction_9 junction_9_junction_8 junction_8_junction_7 -junction_7_junction_1 end_A_end_B"/>
    <route id="r_L_C" edges="end_L_junction_9 junction_9_junction_8 junction_8_junction_7 -junction_7_junction_2 junction_2_end_C"/>
    <route id="r_L_D" edges="end_L_junction_9 junction_9_junction_8 junction_8_junction_7 -junction_7_junction_2 junction_2_end_D"/>
    <route id="r_L_E" edges="end_L_junction_9 junction_9_junction_8 junction_8_junction_3 junction_3_end_E"/>
    <route id="r_L_F" edges="end_L_junction_9 junction_9_junction_4 junction_4_end_F"/>
    <route id="r_L_G" edges="end_L_junction_9 junction_9_junction_4 junction_4_end_G"/>
    <route id="r_L_H" edges="end_L_junction_9 junction_9_junction_5 junction_5_end_H"/>
    <route id="r_L_I" edges="end_L_junction_9 junction_9_junction_5 junction_5_end_I"/>
    <route id="r_L_J" edges="end_L_junction_9 junction_9_junction_8 -junction_6_junction_8 junction_6_end_J"/>
    <route id="r_L_K" edges="end_L_junction_9 junction_9_junction_8 junction_8_junction_7 junction_7_end_K"/>


    <!-- Vehicles, persons and containers (sorted by depart) -->
    <!-- MORNING -->
    <flow id="f_1" type="cautious" begin="0.00" route="r_J_E" end="1440.00" probability="0.6"/>
    <flow id="f_2" type="cautious" begin="0.00" route="r_E_J" end="1440.00" probability="0.6"/>
    <flow id="f_3" type="cautious" begin="0.00" route="r_K_L" end="1440.00" probability="0.6"/>
    <flow id="f_4" type="cautious" begin="0.00" route="r_L_K" end="1440.00" probability="0.6"/>

    <flow id="f_5" type="cautious" begin="0.00" route="r_B_A" end="1440.00" probability="0.3"/>
    <flow id="f_6" type="cautious" begin="0.00" route="r_C_A" end="1440.00" probability="0.3"/>
    <flow id="f_7" type="cautious" begin="0.00" route="r_D_A" end="1440.00" probability="0.3"/>
    <flow id="f_8" type="cautious" begin="0.00" route="r_E_A" end="1440.00" probability="0.3"/>
    <flow id="f_9" type="cautious" begin="0.00" route="r_F_A" end="1440.00" probability="0.3"/>
    <flow id="f_10" type="cautious" begin="0.00" route="r_G_A" end="1440.00" probability="0.3"/>
    <flow id="f_11" type="cautious" begin="0.00" route="r_H_A" end="1440.00" probability="0.3"/>
    <flow id="f_12" type="cautious" begin="0.00" route="r_I_A" end="1440.00" probability="0.3"/>
    <flow id="f_13" type="cautious" begin="0.00" route="r_J_A" end="1440.00" probability="0.3"/>
    <flow id="f_14" type="cautious" begin="0.00" route="r_K_A" end="1440.00" probability="0.3"/>
    <flow id="f_15" type="cautious" begin="0.00" route="r_L_A" end="1440.00" probability="0.3"/>

    <flow id="f_16" type="cautious" begin="0.00" route="r_A_B" end="1440.00" probability="0.3"/>
    <flow id="f_17" type="cautious" begin="0.00" route="r_C_B" end="1440.00" probability="0.3"/>
    <flow id="f_18" type="cautious" begin="0.00" route="r_D_B" end="1440.00" probability="0.3"/>
    <flow id="f_19" type="cautious" begin="0.00" route="r_E_B" end="1440.00" probability="0.3"/>
    <flow id="f_20" type="cautious" begin="0.00" route="r_F_B" end="1440.00" probability="0.3"/>
    <flow id="f_21" type="cautious" begin="0.00" route="r_G_B" end="1440.00" probability="0.3"/>
    <flow id="f_22" type="cautious" begin="0.00" route="r_H_B" end="1440.00" probability="0.3"/>
    <flow id="f_23" type="cautious" begin="0.00" route="r_I_B" end="1440.00" probability="0.3"/>
    <flow id="f_24" type="cautious" begin="0.00" route="r_J_B" end="1440.00" probability="0.3"/>
    <flow id="f_25" type="cautious" begin="0.00" route="r_K_B" end="1440.00" probability="0.3"/>
    <flow id="f_26" type="cautious" begin="0.00" route="r_L_B" end="1440.00" probability="0.3"/>

    <flow id="f_27" type="cautious" begin="0.00" route="r_A_C" end="1440.00" probability="0.3"/>
    <flow id="f_28" type="cautious" begin="0.00" route="r_B_C" end="1440.00" probability="0.3"/>
    <flow id="f_29" type="cautious" begin="0.00" route="r_D_C" end="1440.00" probability="0.3"/>
    <flow id="f_30" type="cautious" begin="0.00" route="r_E_C" end="1440.00" probability="0.3"/>
    <flow id="f_31" type="cautious" begin="0.00" route="r_F_C" end="1440.00" probability="0.3"/>
    <flow id="f_32" type="cautious" begin="0.00" route="r_G_C" end="1440.00" probability="0.3"/>
    <flow id="f_33" type="cautious" begin="0.00" route="r_H_C" end="1440.00" probability="0.3"/>
    <flow id="f_34" type="cautious" begin="0.00" route="r_I_C" end="1440.00" probability="0.3"/>
    <flow id="f_35" type="cautious" begin="0.00" route="r_J_C" end="1440.00" probability="0.3"/>
    <flow id="f_36" type="cautious" begin="0.00" route="r_K_C" end="1440.00" probability="0.3"/>
    <flow id="f_37" type="cautious" begin="0.00" route="r_L_C" end="1440.00" probability="0.3"/>

    <flow id="f_38" type="cautious" begin="0.00" route="r_A_D" end="1440.00" probability="0.3"/>
    <flow id="f_39" type="cautious" begin="0.00" route="r_B_D" end="1440.00" probability="0.3"/>
    <flow id="f_40" type="cautious" begin="0.00" route="r_C_D" end="1440.00" probability="0.3"/>
    <flow id="f_41" type="cautious" begin="0.00" route="r_E_D" end="1440.00" probability="0.3"/>
    <flow id="f_42" type="cautious" begin="0.00" route="r_F_D" end="1440.00" probability="0.3"/>
    <flow id="f_43" type="cautious" begin="0.00" route="r_G_D" end="1440.00" probability="0.3"/>
    <flow id="f_44" type="cautious" begin="0.00" route="r_H_D" end="1440.00" probability="0.3"/>
    <flow id="f_45" type="cautious" begin="0.00" route="r_I_D" end="1440.00" probability="0.3"/>
    <flow id="f_46" type="cautious" begin="0.00" route="r_J_D" end="1440.00" probability="0.3"/>
    <flow id="f_47" type="cautious" begin="0.00" route="r_K_D" end="1440.00" probability="0.3"/>
    <flow id="f_48" type="cautious" begin="0.00" route="r_L_D" end="1440.00" probability="0.3"/>

    <flow id="f_49" type="cautious" begin="0.00" route="r_A_E" end="1440.00" probability="0.3"/>
    <flow id="f_50" type="cautious" begin="0.00" route="r_B_E" end="1440.00" probability="0.3"/>
    <flow id="f_51" type="cautious" begin="0.00" route="r_C_E" end="1440.00" probability="0.3"/>
    <flow id="f_52" type="cautious" begin="0.00" route="r_D_E" end="1440.00" probability="0.3"/>
    <flow id="f_53" type="cautious" begin="0.00" route="r_F_E" end="1440.00" probability="0.3"/>
    <flow id="f_54" type="cautious" begin="0.00" route="r_G_E" end="1440.00" probability="0.3"/>
    <flow id="f_55" type="cautious" begin="0.00" route="r_H_E" end="1440.00" probability="0.3"/>
    <flow id="f_56" type="cautious" begin="0.00" route="r_I_E" end="1440.00" probability="0.3"/>
    <flow id="f_57" type="cautious" begin="0.00" route="r_J_E" end="1440.00" probability="0.3"/>
    <flow id="f_58" type="cautious" begin="0.00" route="r_K_E" end="1440.00" probability="0.3"/>
    <flow id="f_59" type="cautious" begin="0.00" route="r_L_E" end="1440.00" probability="0.3"/>

    <flow id="f_60" type="cautious" begin="0.00" route="r_A_F" end="1440.00" probability="0.3"/>
    <flow id="f_61" type="cautious" begin="0.00" route="r_B_F" end="1440.00" probability="0.3"/>
    <flow id="f_62" type="cautious" begin="0.00" route="r_C_F" end="1440.00" probability="0.3"/>
    <flow id="f_63" type="cautious" begin="0.00" route="r_D_F" end="1440.00" probability="0.3"/>
    <flow id="f_64" type="cautious" begin="0.00" route="r_E_F" end="1440.00" probability="0.3"/>
    <flow id="f_65" type="cautious" begin="0.00" route="r_G_F" end="1440.00" probability="0.3"/>
    <flow id="f_66" type="cautious" begin="0.00" route="r_H_F" end="1440.00" probability="0.3"/>
    <flow id="f_67" type="cautious" begin="0.00" route="r_I_F" end="1440.00" probability="0.3"/>
    <flow id="f_68" type="cautious" begin="0.00" route="r_J_F" end="1440.00" probability="0.3"/>
    <flow id="f_69" type="cautious" begin="0.00" route="r_K_F" end="1440.00" probability="0.3"/>
    <flow id="f_70" type="cautious" begin="0.00" route="r_L_F" end="1440.00" probability="0.3"/>

    <flow id="f_71" type="cautious" begin="0.00" route="r_A_G" end="1440.00" probability="0.3"/>
    <flow id="f_72" type="cautious" begin="0.00" route="r_B_G" end="1440.00" probability="0.3"/>
    <flow id="f_73" type="cautious" begin="0.00" route="r_C_G" end="1440.00" probability="0.3"/>
    <flow id="f_74" type="cautious" begin="0.00" route="r_D_G" end="1440.00" probability="0.3"/>
    <flow id="f_75" type="cautious" begin="0.00" route="r_E_G" end="1440.00" probability="0.3"/>
    <flow id="f_76" type="cautious" begin="0.00" route="r_F_G" end="1440.00" probability="0.3"/>
    <flow id="f_77" type="cautious" begin="0.00" route="r_H_G" end="1440.00" probability="0.3"/>
    <flow id="f_78" type="cautious" begin="0.00" route="r_I_G" end="1440.00" probability="0.3"/>
    <flow id="f_79" type="cautious" begin="0.00" route="r_J_G" end="1440.00" probability="0.3"/>
    <flow id="f_80" type="cautious" begin="0.00" route="r_K_G" end="1440.00" probability="0.3"/>
    <flow id="f_81" type="cautious" begin="0.00" route="r_L_G" end="1440.00" probability="0.3"/>

    <flow id="f_82" type="cautious" begin="0.00" route="r_A_H" end="1440.00" probability="0.3"/>
    <flow id="f_83" type="cautious" begin="0.00" route="r_B_H" end="1440.00" probability="0.3"/>
    <flow id="f_84" type="cautious" begin="0.00" route="r_C_H" end="1440.00" probability="0.3"/>
    <flow id="f_85" type="cautious" begin="0.00" route="r_D_H" end="1440.00" probability="0.3"/>
    <flow id="f_86" type="cautious" begin="0.00" route="r_E_H" end="1440.00" probability="0.3"/>
    <flow id="f_87" type="cautious" begin="0.00" route="r_F_H" end="1440.00" probability="0.3"/>
    <flow id="f_88" type="cautious" begin="0.00" route="r_G_H" end="1440.00" probability="0.3"/>
    <flow id="f_89" type="cautious" begin="0.00" route="r_I_H" end="1440.00" probability="0.3"/>
    <flow id="f_90" type="cautious" begin="0.00" route="r_J_H" end="1440.00" probability="0.3"/>
    <flow id="f_91" type="cautious" begin="0.00" route="r_K_H" end="1440.00" probability="0.3"/>
    <flow id="f_92" type="cautious" begin="0.00" route="r_L_H" end="1440.00" probability="0.3"/>

    <flow id="f_93" type="cautious" begin="0.00" route="r_A_I" end="1440.00" probability="0.3"/>
    <flow id="f_94" type="cautious" begin="0.00" route="r_B_I" end="1440.00" probability="0.3"/>
    <flow id="f_95" type="cautious" begin="0.00" route="r_C_I" end="1440.00" probability="0.3"/>
    <flow id="f_96" type="cautious" begin="0.00" route="r_D_I" end="1440.00" probability="0.3"/>
    <flow id="f_97" type="cautious" begin="0.00" route="r_E_I" end="1440.00" probability="0.3"/>
    <flow id="f_98" type="cautious" begin="0.00" route="r_F_I" end="1440.00" probability="0.3"/>
    <flow id="f_99" type="cautious" begin="0.00" route="r_G_I" end="1440.00" probability="0.3"/>
    <flow id="f_100" type="cautious" begin="0.00" route="r_H_I" end="1440.00" probability="0.3"/>
    <flow id="f_101" type="cautious" begin="0.00" route="r_J_I" end="1440.00" probability="0.3"/>
    <flow id="f_102" type="cautious" begin="0.00" route="r_K_I" end="1440.00" probability="0.3"/>
    <flow id="f_103" type="cautious" begin="0.00" route="r_L_I" end="1440.00" probability="0.3"/>

    <flow id="f_104" type="cautious" begin="0.00" route="r_A_J" end="1440.00" probability="0.3"/>
    <flow id="f_105" type="cautious" begin="0.00" route="r_B_J" end="1440.00" probability="0.3"/>
    <flow id="f_106" type="cautious" begin="0.00" route="r_C_J" end="1440.00" probability="0.3"/>
    <flow id="f_107" type="cautious" begin="0.00" route="r_D_J" end="1440.00" probability="0.3"/>
    <flow id="f_108" type="cautious" begin="0.00" route="r_E_J" end="1440.00" probability="0.3"/>
    <flow id="f_109" type="cautious" begin="0.00" route="r_F_J" end="1440.00" probability="0.3"/>
    <flow id="f_110" type="cautious" begin="0.00" route="r_G_J" end="1440.00" probability="0.3"/>
    <flow id="f_111" type="cautious" begin="0.00" route="r_H_J" end="1440.00" probability="0.3"/>
    <flow id="f_112" type="cautious" begin="0.00" route="r_I_J" end="1440.00" probability="0.3"/>
    <flow id="f_113" type="cautious" begin="0.00" route="r_K_J" end="1440.00" probability="0.3"/>
    <flow id="f_114" type="cautious" begin="0.00" route="r_L_J" end="1440.00" probability="0.3"/>

    <flow id="f_115" type="cautious" begin="0.00" route="r_A_K" end="1440.00" probability="0.3"/>
    <flow id="f_116" type="cautious" begin="0.00" route="r_B_K" end="1440.00" probability="0.3"/>
    <flow id="f_117" type="cautious" begin="0.00" route="r_C_K" end="1440.00" probability="0.3"/>
    <flow id="f_118" type="cautious" begin="0.00" route="r_D_K" end="1440.00" probability="0.3"/>
    <flow id="f_119" type="cautious" begin="0.00" route="r_E_K" end="1440.00" probability="0.3"/>
    <flow id="f_120" type="cautious" begin="0.00" route="r_F_K" end="1440.00" probability="0.3"/>
    <flow id="f_121" type="cautious" begin="0.00" route="r_G_K" end="1440.00" probability="0.3"/>
    <flow id="f_122" type="cautious" begin="0.00" route="r_H_K" end="1440.00" probability="0.3"/>
    <flow id="f_123" type="cautious" begin="0.00" route="r_I_K" end="1440.00" probability="0.3"/>
    <flow id="f_124" type="cautious" begin="0.00" route="r_J_K" end="1440.00" probability="0.3"/>
    <flow id="f_125" type="cautious" begin="0.00" route="r_L_K" end="1440.00" probability="0.3"/>

    <flow id="f_126" type="cautious" begin="0.00" route="r_A_L" end="1440.00" probability="0.3"/>
    <flow id="f_127" type="cautious" begin="0.00" route="r_B_L" end="1440.00" probability="0.3"/>
    <flow id="f_128" type="cautious" begin="0.00" route="r_C_L" end="1440.00" probability="0.3"/>
    <flow id="f_129" type="cautious" begin="0.00" route="r_D_L" end="1440.00" probability="0.3"/>
    <flow id="f_130" type="cautious" begin="0.00" route="r_E_L" end="1440.00" probability="0.3"/>
    <flow id="f_131" type="cautious" begin="0.00" route="r_F_L" end="1440.00" probability="0.3"/>
    <flow id="f_132" type="cautious" begin="0.00" route="r_G_L" end="1440.00" probability="0.3"/>
    <flow id="f_133" type="cautious" begin="0.00" route="r_H_L" end="1440.00" probability="0.3"/>
    <flow id="f_134" type="cautious" begin="0.00" route="r_I_L" end="1440.00" probability="0.3"/>
    <flow id="f_135" type="cautious" begin="0.00" route="r_J_L" end="1440.00" probability="0.3"/>
    <flow id="f_136" type="cautious" begin="0.00" route="r_K_L" end="1440.00" probability="0.3"/>

</routes>
