<?xml version="1.0" encoding="UTF-8"?>

<!-- generated on 2025-03-17 20:19:50 by Eclipse SUMO netedit Version 1.22.0
-->

<routes xmlns:xsi="http://www.w3.org/2001/XMLSchema-instance" xsi:noNamespaceSchemaLocation="http://sumo.dlr.de/xsd/routes_file.xsd">
    <!-- VTypes -->
    <vType id="aggressive" length="4.00" minGap="0.50" maxSpeed="40.00" guiShape="passenger" color="red" carFollowModel="IDM" accel="5" decel="10"/>
    <vType id="bus" length="12.00" minGap="3.00" maxSpeed="20.00" guiShape="bus" color="yellow" carFollowModel="Krauss" accel="1.2" decel="4" sigma="0.6"/>
    <vType id="cautious" length="4.00" minGap="1.50" maxSpeed="30.00" guiShape="passenger" color="blue" carFollowModel="Krauss" accel="2" decel="5" sigma="0.3"/>
    <vType id="motorcycle" length="2.00" minGap="0.30" maxSpeed="50.00" guiShape="motorcycle" color="white" carFollowModel="Krauss" accel="6" decel="8" sigma="0.8"/>
    <vType id="truck" length="12.00" minGap="2.50" maxSpeed="25.00" guiShape="truck" color="white" carFollowModel="IDM" accel="1" decel="3"/>
    <!-- Routes -->
    <route id="r_A_B" edges="end_A_junction_1 end_A_end_B"/>
    <route id="r_A_C" edges="end_A_junction_1 junction_1_junction_7 -junction_7_junction_2 junction_2_end_C"/>
    <route id="r_A_D" edges="end_A_junction_1 junction_1_junction_7 -junction_7_junction_2 junction_2_end_D"/>
    <route id="r_A_E" edges="end_A_junction_1 junction_1_junction_6 junction_6_junction_8 junction_8_junction_3 junction_3_end_E"/>
    <route id="r_A_F" edges="end_A_junction_1 junction_1_junction_7 junction_7_junction_8 junction_8_junction_9 junction_9_junction_4 junction_4_end_F"/>
    <route id="r_A_G" edges="end_A_junction_1 junction_1_junction_6 junction_6_junction_8 junction_8_junction_3 junction_3_junction_4 junction_4_end_G"/>
    <route id="r_A_H" edges="end_A_junction_1 junction_1_junction_6 junction_6_junction_5 junction_5_end_H"/>
    <route id="r_A_I" edges="end_A_junction_1 junction_1_junction_6 junction_6_junction_5 junction_5_end_I"/>
    <route id="r_A_J" edges="end_A_junction_1 junction_1_junction_6 junction_6_end_J"/>
    <route id="r_A_L" edges="end_A_junction_1 junction_1_junction_7 junction_7_junction_8 junction_8_junction_9 junction_9_end_L"/>
    <route id="r_B_A" edges="end_B_junction_1 junction_1_end_A"/>
    <route id="r_B_C" edges="end_B_junction_1 junction_1_junction_7 -junction_7_junction_2 junction_2_end_C"/>
    <route id="r_B_D" edges="end_B_junction_1 junction_1_junction_7 -junction_7_junction_2 junction_2_end_D"/>
    <route id="r_B_E" edges="end_B_junction_1 junction_1_junction_6 junction_6_junction_8 junction_8_junction_3 junction_3_end_E"/>
    <route id="r_B_F" edges="end_B_junction_1 junction_1_junction_6 junction_6_junction_8 junction_8_junction_3 junction_3_junction_4 junction_4_end_F"/>
    <route id="r_B_G" edges="end_B_junction_1 junction_1_junction_6 junction_6_junction_8 junction_8_junction_3 junction_3_junction_4 junction_4_end_G"/>
    <route id="r_B_H" edges="end_B_junction_1 junction_1_junction_6 junction_6_junction_5 junction_5_end_H"/>
    <route id="r_B_I" edges="end_B_junction_1 junction_1_junction_6 junction_6_junction_5 junction_5_end_I"/>
    <route id="r_B_J" edges="end_B_junction_1 junction_1_junction_6 junction_6_end_J"/>
    <route id="r_B_K" edges="end_B_junction_1 junction_1_junction_7 junction_7_end_K"/>
    <route id="r_B_L" edges="end_B_junction_1 junction_1_junction_7 junction_7_junction_8 junction_8_junction_9 junction_9_end_L"/>
    <route id="r_C_A" edges="end_C_junction_2 junction_2_junction_7 -junction_7_junction_1 junction_1_end_A"/>
    <route id="r_C_B" edges="end_C_junction_2 junction_2_junction_7 -junction_7_junction_1 end_A_end_B"/>
    <route id="r_C_D" edges="end_C_junction_2 junction_2_end_D"/>
    <route id="r_C_E" edges="end_C_junction_2 junction_2_junction_3 junction_3_end_E"/>
    <route id="r_C_F" edges="end_C_junction_2 junction_2_junction_3 junction_3_junction_4 junction_4_end_F"/>
    <route id="r_C_G" edges="end_C_junction_2 junction_2_junction_3 junction_3_junction_4 junction_4_end_G"/>
    <route id="r_C_H" edges="end_C_junction_2 junction_2_junction_3 junction_3_junction_8 -junction_6_junction_8 junction_6_junction_5 junction_5_end_H"/>
    <route id="r_C_I" edges="end_C_junction_2 junction_2_junction_3 junction_3_junction_8 -junction_6_junction_8 junction_6_end_J"/>
    <route id="r_C_J" edges="end_C_junction_2 junction_2_junction_3 junction_3_junction_8 -junction_6_junction_8 junction_6_end_J"/>
    <route id="r_C_K" edges="end_C_junction_2 junction_2_junction_7 junction_7_end_K"/>
    <route id="r_C_L" edges="end_C_junction_2 junction_2_junction_7 junction_7_junction_8 junction_8_junction_9 junction_9_end_L"/>
    <route id="r_D_A" edges="end_D_junction_2 junction_2_junction_7 -junction_7_junction_1 junction_1_end_A"/>
    <route id="r_D_B" edges="end_D_junction_2 junction_2_junction_7 -junction_7_junction_1 end_A_end_B"/>
    <route id="r_D_C" edges="end_D_junction_2 junction_2_end_C"/>
    <route id="r_D_E" edges="end_D_junction_2 junction_2_junction_3 junction_3_end_E"/>
    <route id="r_D_F" edges="end_D_junction_2 junction_2_junction_3 junction_3_junction_4 junction_4_end_F"/>
    <route id="r_D_G" edges="end_D_junction_2 junction_2_junction_3 junction_3_junction_4 junction_4_end_G"/>
    <route id="r_D_H" edges="end_D_junction_2 junction_2_junction_3 junction_3_junction_8 -junction_6_junction_8 junction_6_junction_5 junction_5_end_H"/>
    <route id="r_D_I" edges="end_D_junction_2 junction_2_junction_3 junction_3_junction_8 -junction_6_junction_8 junction_6_junction_5 junction_5_end_H"/>
    <route id="r_D_J" edges="end_D_junction_2 junction_2_junction_3 junction_3_junction_8 -junction_6_junction_8 junction_6_end_J"/>
    <route id="r_D_K" edges="end_D_junction_2 junction_2_junction_7 junction_7_end_K"/>
    <route id="r_D_L" edges="end_D_junction_2 junction_2_junction_7 junction_7_junction_8 junction_8_junction_9 junction_9_end_L"/>
    <route id="r_E_A" edges="end_E_junction_3 junction_3_junction_8 -junction_6_junction_8 junction_6_junction_1 junction_1_end_A"/>
    <route id="r_E_B" edges="end_E_junction_3 junction_3_junction_8 -junction_6_junction_8 junction_6_junction_1 end_A_end_B"/>
    <route id="r_E_C" edges="end_E_junction_3 junction_3_junction_2 junction_2_end_C"/>
    <route id="r_E_D" edges="end_E_junction_3 junction_3_junction_2 junction_2_end_D"/>
    <route id="r_E_F" edges="end_E_junction_3 junction_3_junction_4 junction_4_end_F"/>
    <route id="r_E_G" edges="end_E_junction_3 junction_3_junction_4 junction_4_end_G"/>
    <route id="r_E_H" edges="end_E_junction_3 junction_3_junction_8 -junction_6_junction_8 junction_6_junction_5 junction_5_end_H"/>
    <route id="r_E_I" edges="end_E_junction_3 junction_3_junction_8 -junction_6_junction_8 junction_6_junction_5 junction_5_end_I"/>
    <route id="r_E_J" edges="end_E_junction_3 junction_3_junction_8 -junction_6_junction_8 junction_6_end_J"/>
    <route id="r_E_K" edges="end_E_junction_3 junction_3_junction_8 junction_8_junction_7 junction_7_end_K"/>
    <route id="r_E_L" edges="end_E_junction_3 junction_3_junction_8 junction_8_junction_9 junction_9_end_L"/>
    <route id="r_F_A" edges="end_F_junction_4"/>
    <route id="r_F_B" edges="end_F_junction_4 junction_4_junction_3 junction_3_junction_8 -junction_6_junction_8 junction_6_junction_1 end_A_end_B"/>
    <route id="r_F_C" edges="end_F_junction_4 junction_4_junction_3 junction_3_junction_2 junction_2_end_C"/>
    <route id="r_F_D" edges="end_F_junction_4 junction_4_junction_3 junction_3_junction_2 junction_2_end_D"/>
    <route id="r_F_E" edges="end_F_junction_4 junction_4_junction_3 junction_3_end_E"/>
    <route id="r_F_G" edges="end_F_junction_4 junction_4_end_G"/>
    <route id="r_F_H" edges="end_F_junction_4 junction_4_junction_9 junction_9_junction_5 junction_5_end_H"/>
    <route id="r_F_I" edges="end_F_junction_4 junction_4_junction_9 junction_9_junction_5 junction_5_end_I"/>
    <route id="r_F_J" edges="end_F_junction_4 junction_4_junction_3 junction_3_junction_8 -junction_6_junction_8 junction_6_end_J"/>
    <route id="r_F_K" edges="end_F_junction_4 junction_4_junction_9 junction_9_junction_8 junction_8_junction_7 junction_7_end_K"/>
    <route id="r_F_L" edges="end_F_junction_4 junction_4_junction_9 junction_9_end_L"/>
    <route id="r_G_A" edges="end_G_junction_4 junction_4_junction_3 junction_3_junction_8 -junction_6_junction_8 junction_6_junction_1 junction_1_end_A"/>
    <route id="r_G_B" edges="end_G_junction_4 junction_4_junction_3 junction_3_junction_8 -junction_6_junction_8 junction_6_junction_1 end_A_end_B"/>
    <route id="r_G_C" edges="end_G_junction_4 junction_4_junction_3 junction_3_junction_2 junction_2_end_C"/>
    <route id="r_G_D" edges="end_G_junction_4 junction_4_junction_3 junction_3_junction_2 junction_2_end_D"/>
    <route id="r_G_E" edges="end_G_junction_4 junction_4_junction_3 junction_3_end_E"/>
    <route id="r_G_F" edges="end_G_junction_4 junction_4_end_F"/>
    <route id="r_G_H" edges="end_G_junction_4 junction_4_junction_9 junction_9_junction_5 junction_5_end_H"/>
    <route id="r_G_I" edges="end_G_junction_4 junction_4_junction_9 junction_9_junction_5 junction_5_end_I"/>
    <route id="r_G_J" edges="end_G_junction_4 junction_4_junction_3 junction_3_junction_8 -junction_6_junction_8 junction_6_end_J"/>
    <route id="r_G_K" edges="end_G_junction_4 junction_4_junction_9 junction_9_junction_8 junction_8_junction_7 junction_7_end_K"/>
    <route id="r_G_L" edges="end_G_junction_4 junction_4_junction_9 junction_9_end_L"/>
    <route id="r_H_A" edges="end_H_junction_5 junction_5_junction_6 junction_6_junction_1 junction_1_end_A"/>
    <route id="r_H_B" edges="end_H_junction_5 junction_5_junction_6 junction_6_junction_1 end_A_end_B"/>
    <route id="r_H_C" edges="end_H_junction_5 junction_5_junction_6 junction_6_junction_8 junction_8_junction_3 junction_3_junction_2 junction_2_end_C"/>
    <route id="r_H_D" edges="end_H_junction_5 junction_5_junction_9 junction_9_junction_8 junction_8_junction_7 -junction_7_junction_2 junction_2_end_D"/>
    <route id="r_H_E" edges="end_H_junction_5 junction_5_junction_6 junction_6_junction_8 junction_8_junction_3 junction_3_end_E"/>
    <route id="r_H_F" edges="end_H_junction_5 junction_5_junction_9 junction_9_junction_4 junction_4_end_F"/>
    <route id="r_H_G" edges="end_H_junction_5 junction_5_junction_9 junction_9_junction_4 junction_4_end_G"/>
    <route id="r_H_I" edges="end_H_junction_5 junction_5_end_I"/>
    <route id="r_H_J" edges="end_H_junction_5 junction_5_junction_6 junction_6_end_J"/>
    <route id="r_H_K" edges="end_H_junction_5 junction_5_junction_9 junction_9_junction_8 junction_8_junction_7 junction_7_end_K"/>
    <route id="r_H_L" edges="end_H_junction_5 junction_5_junction_9 junction_9_end_L"/>
    <route id="r_I_A" edges="end_I_junction_5 junction_5_junction_6 junction_6_junction_1 junction_1_end_A"/>
    <route id="r_I_B" edges="end_I_junction_5 junction_5_junction_6 junction_6_junction_1 end_A_end_B"/>
    <route id="r_I_C" edges="end_I_junction_5 junction_5_junction_6 junction_6_junction_8 junction_8_junction_3 junction_3_junction_2 junction_2_end_C"/>
    <route id="r_I_D" edges="end_I_junction_5 junction_5_junction_9 junction_9_junction_8 junction_8_junction_7 -junction_7_junction_2 junction_2_end_D"/>
    <route id="r_I_E" edges="end_I_junction_5 junction_5_junction_6 junction_6_junction_8 junction_8_junction_3 junction_3_end_E"/>
    <route id="r_I_F" edges="end_I_junction_5 junction_5_junction_9 junction_9_junction_4 junction_4_end_F"/>
    <route id="r_I_G" edges="end_I_junction_5 junction_5_junction_9 junction_9_junction_4 junction_4_end_G"/>
    <route id="r_I_H" edges="end_I_junction_5 junction_5_end_H"/>
    <route id="r_I_J" edges="end_I_junction_5 junction_5_junction_6 junction_6_end_J"/>
    <route id="r_I_K" edges="end_I_junction_5 junction_5_junction_9 junction_9_junction_8 junction_8_junction_7 junction_7_end_K"/>
    <route id="r_I_L" edges="end_I_junction_5 junction_5_junction_9 junction_9_end_L"/>
    <route id="r_J_A" edges="end_J_junction_6 junction_6_junction_1 junction_1_end_A"/>
    <route id="r_J_B" edges="end_J_junction_6 junction_6_junction_1 end_A_end_B"/>
    <route id="r_J_C" edges="end_J_junction_6 junction_6_junction_8 junction_8_junction_3 junction_3_junction_2 junction_2_end_C"/>
    <route id="r_J_D" edges="end_J_junction_6 junction_6_junction_8 junction_8_junction_3 junction_3_junction_2 junction_2_end_D"/>
    <route id="r_J_E" edges="end_J_junction_6 junction_6_junction_8 junction_8_junction_3 junction_3_end_E"/>
    <route id="r_J_F" edges="end_J_junction_6 junction_6_junction_8 junction_8_junction_3 junction_3_junction_4 junction_4_end_F"/>
    <route id="r_J_G" edges="end_J_junction_6 junction_6_junction_8 junction_8_junction_3 junction_3_junction_4 junction_4_end_G"/>
    <route id="r_J_H" edges="end_J_junction_6 junction_6_junction_5 junction_5_end_H"/>
    <route id="r_J_I" edges="end_J_junction_6 junction_6_junction_5 junction_5_end_I"/>
    <route id="r_J_K" edges="end_J_junction_6 junction_6_junction_8 junction_8_junction_7 junction_7_end_K"/>
    <route id="r_J_L" edges="end_J_junction_6 junction_6_junction_8 junction_8_junction_9 junction_9_end_L"/>
    <route id="r_K_A" edges="end_K_junction_7 -junction_7_junction_1 junction_1_end_A"/>
    <route id="r_K_B" edges="end_K_junction_7 -junction_7_junction_1 end_A_end_B"/>
    <route id="r_K_C" edges="end_K_junction_7 -junction_7_junction_2 junction_2_end_C"/>
    <route id="r_K_D" edges="end_K_junction_7 -junction_7_junction_2 junction_2_end_D"/>
    <route id="r_K_E" edges="end_K_junction_7 junction_7_junction_8 junction_8_junction_3 junction_3_end_E"/>
    <route id="r_K_F" edges="end_K_junction_7 junction_7_junction_8 junction_8_junction_9 junction_9_junction_4 junction_4_end_F"/>
    <route id="r_K_G" edges="end_K_junction_7 junction_7_junction_8 junction_8_junction_9 junction_9_junction_4 junction_4_end_G"/>
    <route id="r_K_H" edges="end_K_junction_7 junction_7_junction_8 junction_8_junction_9 junction_9_junction_5 junction_5_end_H"/>
    <route id="r_K_I" edges="end_K_junction_7 junction_7_junction_8 junction_8_junction_9 junction_9_junction_5 junction_5_end_H"/>
    <route id="r_K_J" edges="end_K_junction_7 junction_7_junction_8 -junction_6_junction_8 junction_6_end_J"/>
    <route id="r_K_L" edges="end_K_junction_7 junction_7_junction_8 junction_8_junction_9 junction_9_end_L"/>
    <route id="r_L_A" edges="end_L_junction_9 junction_9_junction_8 junction_8_junction_7 -junction_7_junction_1 junction_1_end_A"/>
    <route id="r_L_B" edges="end_L_junction_9 junction_9_junction_8 junction_8_junction_7 -junction_7_junction_1 end_A_end_B"/>
    <route id="r_L_C" edges="end_L_junction_9 junction_9_junction_8 junction_8_junction_7 -junction_7_junction_2 junction_2_end_C"/>
    <route id="r_L_D" edges="end_L_junction_9 junction_9_junction_8 junction_8_junction_7 -junction_7_junction_2 junction_2_end_D"/>
    <route id="r_L_E" edges="end_L_junction_9 junction_9_junction_8 junction_8_junction_3 junction_3_end_E"/>
    <route id="r_L_F" edges="end_L_junction_9 junction_9_junction_4 junction_4_end_F"/>
    <route id="r_L_G" edges="end_L_junction_9 junction_9_junction_4 junction_4_end_G"/>
    <route id="r_L_H" edges="end_L_junction_9 junction_9_junction_5 junction_5_end_H"/>
    <route id="r_L_I" edges="end_L_junction_9 junction_9_junction_5 junction_5_end_I"/>
    <route id="r_L_J" edges="end_L_junction_9 junction_9_junction_8 -junction_6_junction_8 junction_6_end_J"/>
    <route id="r_L_K" edges="end_L_junction_9 junction_9_junction_8 junction_8_junction_7 junction_7_end_K"/>


    <!-- Vehicles, persons and containers (sorted by depart) -->
    <flow id="f_10" type="cautious" begin="0.00" route="r_A_I" end="650.00" probability="0.02999999999999999889"/>
    <flow id="f_10_A" type="aggressive" begin="0.00" route="r_A_I" end="650.00" probability="0.01000000000000000021"/>
    <flow id="f_10_B" type="bus" begin="0.00" route="r_A_I" end="650.00" probability="0.01499999999999999944"/>
    <flow id="f_10_M" type="motorcycle" begin="0.00" route="r_A_I" end="650.00" probability="0.02500000000000000139"/>
    <flow id="f_10_T" type="truck" begin="0.00" route="r_A_I" end="650.00" probability="0.02000000000000000042"/>
    <flow id="f_11" type="cautious" begin="0.00" route="r_A_J" end="650.00" probability="0.02999999999999999889"/>
    <flow id="f_11_A" type="aggressive" begin="0.00" route="r_A_J" end="650.00" probability="0.01000000000000000021"/>
    <flow id="f_11_B" type="bus" begin="0.00" route="r_A_J" end="650.00" probability="0.01499999999999999944"/>
    <flow id="f_11_M" type="motorcycle" begin="0.00" route="r_A_J" end="650.00" probability="0.02500000000000000139"/>
    <flow id="f_11_T" type="truck" begin="0.00" route="r_A_J" end="650.00" probability="0.02000000000000000042"/>
    <flow id="f_12" type="cautious" begin="0.00" route="r_B_A" end="650.00" probability="0.02999999999999999889"/>
    <flow id="f_12_A" type="aggressive" begin="0.00" route="r_B_A" end="650.00" probability="0.01000000000000000021"/>
    <flow id="f_12_B" type="bus" begin="0.00" route="r_B_A" end="650.00" probability="0.01499999999999999944"/>
    <flow id="f_12_M" type="motorcycle" begin="0.00" route="r_B_A" end="650.00" probability="0.02500000000000000139"/>
    <flow id="f_12_T" type="truck" begin="0.00" route="r_B_A" end="650.00" probability="0.02000000000000000042"/>
    <flow id="f_18" type="cautious" begin="0.00" route="r_B_H" end="650.00" probability="0.02999999999999999889"/>
    <flow id="f_18_A" type="aggressive" begin="0.00" route="r_B_H" end="650.00" probability="0.01000000000000000021"/>
    <flow id="f_18_B" type="bus" begin="0.00" route="r_B_H" end="650.00" probability="0.01499999999999999944"/>
    <flow id="f_18_M" type="motorcycle" begin="0.00" route="r_B_H" end="650.00" probability="0.02500000000000000139"/>
    <flow id="f_18_T" type="truck" begin="0.00" route="r_B_H" end="650.00" probability="0.02000000000000000042"/>
    <flow id="f_19" type="cautious" begin="0.00" route="r_B_I" end="650.00" probability="0.02999999999999999889"/>
    <flow id="f_19_A" type="aggressive" begin="0.00" route="r_B_I" end="650.00" probability="0.01000000000000000021"/>
    <flow id="f_19_B" type="bus" begin="0.00" route="r_B_I" end="650.00" probability="0.01499999999999999944"/>
    <flow id="f_19_M" type="motorcycle" begin="0.00" route="r_B_I" end="650.00" probability="0.02500000000000000139"/>
    <flow id="f_19_T" type="truck" begin="0.00" route="r_B_I" end="650.00" probability="0.02000000000000000042"/>
    <flow id="f_20" type="cautious" begin="0.00" route="r_B_J" end="650.00" probability="0.02999999999999999889"/>
    <flow id="f_20_A" type="aggressive" begin="0.00" route="r_B_J" end="650.00" probability="0.01000000000000000021"/>
    <flow id="f_20_B" type="bus" begin="0.00" route="r_B_J" end="650.00" probability="0.01499999999999999944"/>
    <flow id="f_20_M" type="motorcycle" begin="0.00" route="r_B_J" end="650.00" probability="0.02500000000000000139"/>
    <flow id="f_20_T" type="truck" begin="0.00" route="r_B_J" end="650.00" probability="0.02000000000000000042"/>
    <flow id="f_23" type="cautious" begin="0.00" route="r_C_D" end="650.00" probability="0.02999999999999999889"/>
    <flow id="f_23_A" type="aggressive" begin="0.00" route="r_C_D" end="650.00" probability="0.01000000000000000021"/>
    <flow id="f_23_B" type="bus" begin="0.00" route="r_C_D" end="650.00" probability="0.01499999999999999944"/>
    <flow id="f_23_M" type="motorcycle" begin="0.00" route="r_C_D" end="650.00" probability="0.02500000000000000139"/>
    <flow id="f_23_T" type="truck" begin="0.00" route="r_C_D" end="650.00" probability="0.02000000000000000042"/>
    <flow id="f_24" type="cautious" begin="0.00" route="r_C_E" end="650.00" probability="0.04499999999999999833"/>
    <flow id="f_24_A" type="aggressive" begin="0.00" route="r_C_E" end="650.00" probability="0.01499999999999999944"/>
    <flow id="f_24_B" type="bus" begin="0.00" route="r_C_E" end="650.00" probability="0.02500000000000000139"/>
    <flow id="f_24_M" type="motorcycle" begin="0.00" route="r_C_E" end="650.00" probability="0.03500000000000000333"/>
    <flow id="f_24_T" type="truck" begin="0.00" route="r_C_E" end="650.00" probability="0.02999999999999999889"/>
    <flow id="f_25" type="cautious" begin="0.00" route="r_C_F" end="650.00" probability="0.02999999999999999889"/>
    <flow id="f_25_A" type="aggressive" begin="0.00" route="r_C_F" end="650.00" probability="0.01000000000000000021"/>
    <flow id="f_25_B" type="bus" begin="0.00" route="r_C_F" end="650.00" probability="0.01499999999999999944"/>
    <flow id="f_25_M" type="motorcycle" begin="0.00" route="r_C_F" end="650.00" probability="0.02500000000000000139"/>
    <flow id="f_25_T" type="truck" begin="0.00" route="r_C_F" end="650.00" probability="0.02000000000000000042"/>
    <flow id="f_26" type="cautious" begin="0.00" route="r_C_G" end="650.00" probability="0.02999999999999999889"/>
    <flow id="f_26_A" type="aggressive" begin="0.00" route="r_C_G" end="650.00" probability="0.01000000000000000021"/>
    <flow id="f_26_B" type="bus" begin="0.00" route="r_C_G" end="650.00" probability="0.01499999999999999944"/>
    <flow id="f_26_M" type="motorcycle" begin="0.00" route="r_C_G" end="650.00" probability="0.02500000000000000139"/>
    <flow id="f_26_T" type="truck" begin="0.00" route="r_C_G" end="650.00" probability="0.02000000000000000042"/>
    <flow id="f_3" type="cautious" begin="0.00" route="r_A_B" end="650.00" probability="0.02999999999999999889"/>
    <flow id="f_32" type="cautious" begin="0.00" route="r_D_C" end="650.00" probability="0.02999999999999999889"/>
    <flow id="f_32_A" type="aggressive" begin="0.00" route="r_D_C" end="650.00" probability="0.01000000000000000021"/>
    <flow id="f_32_B" type="bus" begin="0.00" route="r_D_C" end="650.00" probability="0.01499999999999999944"/>
    <flow id="f_32_M" type="motorcycle" begin="0.00" route="r_D_C" end="650.00" probability="0.02500000000000000139"/>
    <flow id="f_32_T" type="truck" begin="0.00" route="r_D_C" end="650.00" probability="0.02000000000000000042"/>
    <flow id="f_33" type="cautious" begin="0.00" route="r_D_E" end="650.00" probability="0.04499999999999999833"/>
    <flow id="f_33_A" type="aggressive" begin="0.00" route="r_D_E" end="650.00" probability="0.01499999999999999944"/>
    <flow id="f_33_B" type="bus" begin="0.00" route="r_D_E" end="650.00" probability="0.02500000000000000139"/>
    <flow id="f_33_M" type="motorcycle" begin="0.00" route="r_D_E" end="650.00" probability="0.03500000000000000333"/>
    <flow id="f_33_T" type="truck" begin="0.00" route="r_D_E" end="650.00" probability="0.02999999999999999889"/>
    <flow id="f_34" type="cautious" begin="0.00" route="r_D_F" end="650.00" probability="0.02999999999999999889"/>
    <flow id="f_34_A" type="aggressive" begin="0.00" route="r_D_F" end="650.00" probability="0.01000000000000000021"/>
    <flow id="f_34_B" type="bus" begin="0.00" route="r_D_F" end="650.00" probability="0.01499999999999999944"/>
    <flow id="f_34_M" type="motorcycle" begin="0.00" route="r_D_F" end="650.00" probability="0.02500000000000000139"/>
    <flow id="f_34_T" type="truck" begin="0.00" route="r_D_F" end="650.00" probability="0.02000000000000000042"/>
    <flow id="f_35" type="cautious" begin="0.00" route="r_D_G" end="650.00" probability="0.02999999999999999889"/>
    <flow id="f_35_A" type="aggressive" begin="0.00" route="r_D_G" end="650.00" probability="0.01000000000000000021"/>
    <flow id="f_35_B" type="bus" begin="0.00" route="r_D_G" end="650.00" probability="0.01499999999999999944"/>
    <flow id="f_35_M" type="motorcycle" begin="0.00" route="r_D_G" end="650.00" probability="0.02500000000000000139"/>
    <flow id="f_35_T" type="truck" begin="0.00" route="r_D_G" end="650.00" probability="0.02000000000000000042"/>
    <flow id="f_3_A" type="aggressive" begin="0.00" route="r_A_B" end="650.00" probability="0.01000000000000000021"/>
    <flow id="f_3_B" type="bus" begin="0.00" route="r_A_B" end="650.00" probability="0.01499999999999999944"/>
    <flow id="f_3_M" type="motorcycle" begin="0.00" route="r_A_B" end="650.00" probability="0.02500000000000000139"/>
    <flow id="f_3_T" type="truck" begin="0.00" route="r_A_B" end="650.00" probability="0.02000000000000000042"/>
    <flow id="f_41" type="cautious" begin="0.00" route="r_E_C" end="650.00" probability="0.02999999999999999889"/>
    <flow id="f_41_A" type="aggressive" begin="0.00" route="r_E_C" end="650.00" probability="0.01000000000000000021"/>
    <flow id="f_41_B" type="bus" begin="0.00" route="r_E_C" end="650.00" probability="0.01499999999999999944"/>
    <flow id="f_41_M" type="motorcycle" begin="0.00" route="r_E_C" end="650.00" probability="0.02500000000000000139"/>
    <flow id="f_41_T" type="truck" begin="0.00" route="r_E_C" end="650.00" probability="0.02000000000000000042"/>
    <flow id="f_42" type="cautious" begin="0.00" route="r_E_D" end="650.00" probability="0.02999999999999999889"/>
    <flow id="f_42_A" type="aggressive" begin="0.00" route="r_E_D" end="650.00" probability="0.01000000000000000021"/>
    <flow id="f_42_B" type="bus" begin="0.00" route="r_E_D" end="650.00" probability="0.01499999999999999944"/>
    <flow id="f_42_M" type="motorcycle" begin="0.00" route="r_E_D" end="650.00" probability="0.02500000000000000139"/>
    <flow id="f_42_T" type="truck" begin="0.00" route="r_E_D" end="650.00" probability="0.02000000000000000042"/>
    <flow id="f_43" type="cautious" begin="0.00" route="r_E_F" end="650.00" probability="0.02999999999999999889"/>
    <flow id="f_43_A" type="aggressive" begin="0.00" route="r_E_F" end="650.00" probability="0.01000000000000000021"/>
    <flow id="f_43_B" type="bus" begin="0.00" route="r_E_F" end="650.00" probability="0.01499999999999999944"/>
    <flow id="f_43_M" type="motorcycle" begin="0.00" route="r_E_F" end="650.00" probability="0.02500000000000000139"/>
    <flow id="f_43_T" type="truck" begin="0.00" route="r_E_F" end="650.00" probability="0.02000000000000000042"/>
    <flow id="f_44" type="cautious" begin="0.00" route="r_E_G" end="650.00" probability="0.02999999999999999889"/>
    <flow id="f_44_A" type="aggressive" begin="0.00" route="r_E_G" end="650.00" probability="0.01000000000000000021"/>
    <flow id="f_44_B" type="bus" begin="0.00" route="r_E_G" end="650.00" probability="0.01499999999999999944"/>
    <flow id="f_44_M" type="motorcycle" begin="0.00" route="r_E_G" end="650.00" probability="0.02500000000000000139"/>
    <flow id="f_44_T" type="truck" begin="0.00" route="r_E_G" end="650.00" probability="0.02000000000000000042"/>
    <flow id="f_58" type="cautious" begin="0.00" route="r_G_C" end="650.00" probability="0.02999999999999999889"/>
    <flow id="f_58_A" type="aggressive" begin="0.00" route="r_G_C" end="650.00" probability="0.01000000000000000021"/>
    <flow id="f_58_B" type="bus" begin="0.00" route="r_G_C" end="650.00" probability="0.01499999999999999944"/>
    <flow id="f_58_M" type="motorcycle" begin="0.00" route="r_G_C" end="650.00" probability="0.02500000000000000139"/>
    <flow id="f_58_T" type="truck" begin="0.00" route="r_G_C" end="650.00" probability="0.02000000000000000042"/>
    <flow id="f_59" type="cautious" begin="0.00" route="r_G_D" end="650.00" probability="0.02999999999999999889"/>
    <flow id="f_59_A" type="aggressive" begin="0.00" route="r_G_D" end="650.00" probability="0.01000000000000000021"/>
    <flow id="f_59_B" type="bus" begin="0.00" route="r_G_D" end="650.00" probability="0.01499999999999999944"/>
    <flow id="f_59_M" type="motorcycle" begin="0.00" route="r_G_D" end="650.00" probability="0.02500000000000000139"/>
    <flow id="f_59_T" type="truck" begin="0.00" route="r_G_D" end="650.00" probability="0.02000000000000000042"/>
    <flow id="f_60" type="cautious" begin="0.00" route="r_G_E" end="650.00" probability="0.04499999999999999833"/>
    <flow id="f_60_A" type="aggressive" begin="0.00" route="r_G_E" end="650.00" probability="0.01499999999999999944"/>
    <flow id="f_60_B" type="bus" begin="0.00" route="r_G_E" end="650.00" probability="0.02500000000000000139"/>
    <flow id="f_60_M" type="motorcycle" begin="0.00" route="r_G_E" end="650.00" probability="0.03500000000000000333"/>
    <flow id="f_60_T" type="truck" begin="0.00" route="r_G_E" end="650.00" probability="0.02999999999999999889"/>
    <flow id="f_61" type="cautious" begin="0.00" route="r_G_F" end="650.00" probability="0.02999999999999999889"/>
    <flow id="f_61_A" type="aggressive" begin="0.00" route="r_G_F" end="650.00" probability="0.01000000000000000021"/>
    <flow id="f_61_B" type="bus" begin="0.00" route="r_G_F" end="650.00" probability="0.01499999999999999944"/>
    <flow id="f_61_M" type="motorcycle" begin="0.00" route="r_G_F" end="650.00" probability="0.02500000000000000139"/>
    <flow id="f_61_T" type="truck" begin="0.00" route="r_G_F" end="650.00" probability="0.02000000000000000042"/>
    <flow id="f_65" type="cautious" begin="0.00" route="r_H_A" end="650.00" probability="0.02999999999999999889"/>
    <flow id="f_65_A" type="aggressive" begin="0.00" route="r_H_A" end="650.00" probability="0.01000000000000000021"/>
    <flow id="f_65_B" type="bus" begin="0.00" route="r_H_A" end="650.00" probability="0.01499999999999999944"/>
    <flow id="f_65_M" type="motorcycle" begin="0.00" route="r_H_A" end="650.00" probability="0.02500000000000000139"/>
    <flow id="f_65_T" type="truck" begin="0.00" route="r_H_A" end="650.00" probability="0.02000000000000000042"/>
    <flow id="f_66" type="cautious" begin="0.00" route="r_H_B" end="650.00" probability="0.02999999999999999889"/>
    <flow id="f_66_A" type="aggressive" begin="0.00" route="r_H_B" end="650.00" probability="0.01000000000000000021"/>