<?xml version="1.0" encoding="UTF-8"?>

<!-- generated on 2025-03-20 16:23:08 by Eclipse SUMO netconvert Version 1.22.0
<netconvertConfiguration xmlns:xsi="http://www.w3.org/2001/XMLSchema-instance" xsi:noNamespaceSchemaLocation="http://sumo.dlr.de/xsd/netconvertConfiguration.xsd">

    <input>
        <type-files value="${SUMO_HOME}/data/typemap/osmNetconvert.typ.xml"/>
        <osm-files value="osm_bbox.osm.xml.gz"/>
    </input>

    <output>
        <output-file value="osm.net.xml.gz"/>
        <output.street-names value="true"/>
        <output.original-names value="true"/>
    </output>

    <projection>
        <proj.utm value="true"/>
    </projection>

    <processing>
        <geometry.remove value="true"/>
        <roundabouts.guess value="true"/>
    </processing>

    <tls_building>
        <tls.discard-simple value="true"/>
        <tls.join value="true"/>
        <tls.guess-signals value="true"/>
        <tls.default-type value="actuated"/>
    </tls_building>

    <ramp_guessing>
        <ramps.guess value="true"/>
    </ramp_guessing>

    <edge_removal>
        <keep-edges.by-vclass value="passenger"/>
    </edge_removal>

    <junctions>
        <junctions.join value="true"/>
        <junctions.corner-detail value="5"/>
    </junctions>

</netconvertConfiguration>
-->

<net version="1.20" junctionCornerDetail="5" limitTurnSpeed="5.50" xmlns:xsi="http://www.w3.org/2001/XMLSchema-instance" xsi:noNamespaceSchemaLocation="http://sumo.dlr.de/xsd/net_file.xsd">

    <location netOffset="-450695.38,-5413076.08" convBoundary="0.00,0.00,722.89,431.08" origBoundary="2.327626,48.868669,2.337549,48.872593" projParameter="+proj=utm +zone=31 +ellps=WGS84 +datum=WGS84 +units=m +no_defs"/>

    <type id="highway.living_street" priority="2" numLanes="1" speed="2.78" disallow="tram rail_urban rail rail_electric rail_fast ship container cable_car subway aircraft wheelchair scooter drone" oneway="0"/>
    <type id="highway.primary" priority="12" numLanes="2" speed="27.78" disallow="tram rail_urban rail rail_electric rail_fast ship container cable_car subway aircraft wheelchair scooter drone" oneway="0"/>
    <type id="highway.residential" priority="3" numLanes="1" speed="13.89" disallow="tram rail_urban rail rail_electric rail_fast ship container cable_car subway aircraft wheelchair scooter drone" oneway="0"/>
    <type id="highway.secondary" priority="11" numLanes="1" speed="27.78" disallow="tram rail_urban rail rail_electric rail_fast ship container cable_car subway aircraft wheelchair scooter drone" oneway="0"/>
    <type id="highway.tertiary" priority="10" numLanes="1" speed="22.22" disallow="tram rail_urban rail rail_electric rail_fast ship container cable_car subway aircraft wheelchair scooter drone" oneway="0"/>
    <type id="highway.unclassified" priority="4" numLanes="1" speed="13.89" disallow="tram rail_urban rail rail_electric rail_fast ship container cable_car subway aircraft wheelchair scooter drone" oneway="0"/>

    <edge id=":1519498106_0" function="internal">
        <lane id=":1519498106_0_0" index="0" disallow="tram rail_urban rail rail_electric rail_fast ship container cable_car subway aircraft wheelchair scooter drone" speed="8.33" length="7.75" shape="607.97,429.83 600.42,431.47"/>
        <lane id=":1519498106_0_1" index="1" disallow="tram rail_urban rail rail_electric rail_fast ship container cable_car subway aircraft wheelchair scooter drone" speed="8.33" length="7.75" shape="607.29,426.70 599.72,428.35"/>
        <lane id=":1519498106_0_2" index="2" disallow="tram rail_urban rail rail_electric rail_fast ship container cable_car subway aircraft wheelchair scooter drone" speed="8.33" length="7.75" shape="606.61,423.58 599.01,425.23"/>
    </edge>
    <edge id=":1519498106_3" function="internal">
        <lane id=":1519498106_3_0" index="0" disallow="tram rail_urban rail rail_electric rail_fast ship container cable_car subway aircraft wheelchair scooter drone" speed="8.33" length="9.37" shape="603.76,419.95 603.11,421.62 601.97,424.41 600.71,427.07 599.72,428.35"/>
        <lane id=":1519498106_3_1" index="1" disallow="tram rail_urban rail rail_electric rail_fast ship container cable_car subway aircraft wheelchair scooter drone" speed="7.86" length="7.36" shape="603.76,419.95 602.77,422.01 601.65,423.58 600.40,424.65 599.01,425.23"/>
    </edge>
    <edge id=":169319602_0" function="internal">
        <lane id=":169319602_0_0" index="0" disallow="tram rail_urban rail rail_electric rail_fast ship container cable_car subway aircraft wheelchair scooter drone" speed="8.33" length="18.64" shape="461.83,313.17 460.06,317.04 457.24,321.16 454.06,325.06 451.17,328.32"/>
    </edge>
    <edge id=":169319602_1" function="internal">
        <lane id=":169319602_1_0" index="0" disallow="tram rail_urban rail rail_electric rail_fast ship container cable_car subway aircraft wheelchair scooter drone" speed="3.65" length="1.44" shape="461.83,313.17 460.73,314.10"/>
    </edge>
    <edge id=":169319602_6" function="internal">
        <lane id=":169319602_6_0" index="0" disallow="tram rail_urban rail rail_electric rail_fast ship container cable_car subway aircraft wheelchair scooter drone" speed="3.65" length="3.23" shape="460.73,314.10 459.85,314.26 459.20,313.66 458.76,312.28"/>
    </edge>
    <edge id=":169319602_2" function="internal">
        <lane id=":169319602_2_0" index="0" disallow="tram rail_urban rail rail_electric rail_fast ship container cable_car subway aircraft wheelchair scooter drone" speed="8.33" length="17.22" shape="448.80,326.18 451.57,323.12 454.51,319.64 457.09,315.96 458.76,312.28"/>
    </edge>
    <edge id=":169319602_3" function="internal">
        <lane id=":169319602_3_0" index="0" disallow="tram rail_urban rail rail_electric rail_fast ship container cable_car subway aircraft wheelchair scooter drone" speed="3.65" length="1.44" shape="448.80,326.18 450.19,325.82"/>
    </edge>
    <edge id=":169319602_7" function="internal">
        <lane id=":169319602_7_0" index="0" disallow="tram rail_urban rail rail_electric rail_fast ship container cable_car subway aircraft wheelchair scooter drone" speed="3.65" length="3.23" shape="450.19,325.82 451.05,326.06 451.38,326.90 451.17,328.32"/>
    </edge>
    <edge id=":169319602_4" function="internal">
        <lane id=":169319602_4_0" index="0" disallow="tram rail_urban rail rail_electric rail_fast ship container cable_car subway aircraft wheelchair scooter drone" speed="5.57" length="11.56" shape="455.62,330.69 456.29,326.76 455.77,325.05 454.07,325.57 451.17,328.32"/>
    </edge>
    <edge id=":169319602_5" function="internal">
        <lane id=":169319602_5_0" index="0" disallow="tram rail_urban rail rail_electric rail_fast ship container cable_car subway aircraft wheelchair scooter drone" speed="8.33" length="18.68" shape="455.62,330.69 458.76,312.28"/>
    </edge>
    <edge id=":2180084699_0" function="internal">
        <lane id=":2180084699_0_0" index="0" disallow="tram rail_urban rail rail_electric rail_fast ship container cable_car subway aircraft wheelchair scooter drone" speed="3.65" length="4.67" shape="709.76,306.45 710.73,307.52 710.92,308.39 710.33,309.07 708.97,309.55"/>
    </edge>
    <edge id=":2200327141_0" function="internal">
        <lane id=":2200327141_0_0" index="0" disallow="tram rail_urban rail rail_electric rail_fast ship container cable_car subway aircraft wheelchair scooter drone" speed="3.65" length="4.67" shape="276.63,89.94 276.63,88.50 277.06,87.72 277.95,87.60 279.29,88.15"/>
    </edge>
    <edge id=":2200327366_0" function="internal">
        <lane id=":2200327366_0_0" index="0" disallow="tram rail_urban rail rail_electric rail_fast ship container cable_car subway aircraft wheelchair scooter drone" speed="8.33" length="0.21" shape="41.26,146.05 41.15,146.03"/>
        <lane id=":2200327366_0_1" index="1" disallow="tram rail_urban rail rail_electric rail_fast ship container cable_car subway aircraft wheelchair scooter drone" speed="8.33" length="0.21" shape="42.02,142.94 41.71,142.88"/>
    </edge>
    <edge id=":2200327366_2" function="internal">
        <lane id=":2200327366_2_0" index="0" disallow="tram rail_urban rail rail_electric rail_fast ship container cable_car subway aircraft wheelchair scooter drone" speed="8.33" length="0.74" shape="43.37,133.42 44.29,133.61"/>
        <lane id=":2200327366_2_1" index="1" disallow="tram rail_urban rail rail_electric rail_fast ship container cable_car subway aircraft wheelchair scooter drone" speed="8.33" length="0.74" shape="42.81,136.57 43.53,136.72"/>
        <lane id=":2200327366_2_2" index="2" disallow="tram rail_urban rail rail_electric rail_fast ship container cable_car subway aircraft wheelchair scooter drone" speed="8.33" length="0.74" shape="42.26,139.72 42.77,139.83"/>
    </edge>
    <edge id=":25207334_0" function="internal">
        <lane id=":25207334_0_0" index="0" allow="bus bicycle" speed="6.18" length="9.17" shape="668.37,78.14 668.96,80.70 670.20,82.29 672.08,82.93 674.60,82.61"/>
        <lane id=":25207334_0_1" index="1" disallow="tram rail_urban rail rail_electric rail_fast ship container cable_car subway aircraft wheelchair scooter drone" speed="7.03" length="12.22" shape="668.37,78.14 669.13,82.11 670.57,84.69 672.68,85.88 675.47,85.68"/>
    </edge>
    <edge id=":25207334_2" function="internal">
        <lane id=":25207334_2_0" index="0" disallow="tram rail_urban rail rail_electric rail_fast ship container cable_car subway aircraft wheelchair scooter drone" speed="8.33" length="18.81" shape="668.37,78.14 669.02,96.94"/>
    </edge>
    <edge id=":25207334_3" function="internal">
        <lane id=":25207334_3_0" index="0" allow="bus bicycle" speed="8.33" length="13.94" shape="661.19,86.44 674.60,82.61"/>
        <lane id=":25207334_3_1" index="1" disallow="tram rail_urban rail rail_electric rail_fast ship container cable_car subway aircraft wheelchair scooter drone" speed="8.33" length="13.94" shape="662.08,89.52 675.47,85.68"/>
        <lane id=":25207334_3_2" index="2" disallow="tram rail_urban rail rail_electric rail_fast ship container cable_car subway aircraft wheelchair scooter drone" speed="8.33" length="13.94" shape="662.96,92.59 676.35,88.76"/>
    </edge>
    <edge id=":25207334_6" function="internal">
        <lane id=":25207334_6_0" index="0" disallow="tram rail_urban rail rail_electric rail_fast ship container cable_car subway aircraft wheelchair scooter drone" speed="6.05" length="9.07" shape="662.96,92.59 665.52,92.24 667.38,92.84 668.55,94.41 669.02,96.94"/>
    </edge>
    <edge id=":25207345_0" function="internal">
        <lane id=":25207345_0_0" index="0" allow="bus bicycle" speed="8.33" length="11.27" shape="611.13,288.59 600.18,285.87"/>
        <lane id=":25207345_0_1" index="1" disallow="tram rail_urban rail rail_electric rail_fast ship container cable_car subway aircraft wheelchair scooter drone" speed="8.33" length="11.27" shape="611.89,285.49 600.96,282.77"/>
    </edge>
    <edge id=":25207345_2" function="internal">
        <lane id=":25207345_2_0" index="0" disallow="tram rail_urban rail rail_electric rail_fast ship container cable_car subway aircraft wheelchair scooter drone" speed="8.33" length="14.51" shape="611.89,285.49 609.99,284.24 608.86,281.62 608.49,277.63 608.89,272.26"/>
    </edge>
    <edge id=":25207345_3" function="internal">
        <lane id=":25207345_3_0" index="0" disallow="tram rail_urban rail rail_electric rail_fast ship container cable_car subway aircraft wheelchair scooter drone" speed="3.65" length="4.67" shape="611.89,285.49 610.92,284.42 610.72,283.55 611.30,282.87 612.65,282.38"/>
    </edge>
    <edge id=":25207345_4" function="internal">
        <lane id=":25207345_4_0" index="0" disallow="tram rail_urban rail rail_electric rail_fast ship container cable_car subway aircraft wheelchair scooter drone" speed="6.25" length="9.01" shape="602.52,276.56 605.03,276.82 606.93,276.20 608.21,274.68 608.89,272.26"/>
    </edge>
    <edge id=":25207345_5" function="internal">
        <lane id=":25207345_5_0" index="0" disallow="tram rail_urban rail rail_electric rail_fast ship container cable_car subway aircraft wheelchair scooter drone" speed="8.33" length="11.23" shape="602.52,276.56 613.41,279.27"/>
        <lane id=":25207345_5_1" index="1" disallow="tram rail_urban rail rail_electric rail_fast ship container cable_car subway aircraft wheelchair scooter drone" speed="8.33" length="11.23" shape="601.74,279.66 612.65,282.38"/>
    </edge>
    <edge id=":25207345_7" function="internal">
        <lane id=":25207345_7_0" index="0" disallow="tram rail_urban rail rail_electric rail_fast ship container cable_car subway aircraft wheelchair scooter drone" speed="3.65" length="4.67" shape="601.74,279.66 602.71,280.73 602.90,281.61 602.32,282.28 600.96,282.77"/>
    </edge>
    <edge id=":25272917_0" function="internal">
        <lane id=":25272917_0_0" index="0" disallow="tram rail_urban rail rail_electric rail_fast ship container cable_car subway aircraft wheelchair scooter drone" speed="6.81" length="8.25" shape="131.14,19.96 130.02,21.66 129.64,23.49 130.00,25.45 131.11,27.52"/>
    </edge>
    <edge id=":25272917_1" function="internal">
        <lane id=":25272917_1_0" index="0" disallow="tram rail_urban rail rail_electric rail_fast ship container cable_car subway aircraft wheelchair scooter drone" speed="8.33" length="9.65" shape="131.14,19.96 124.67,27.11"/>
    </edge>
    <edge id=":25272921_0" function="internal">
        <lane id=":25272921_0_0" index="0" disallow="tram rail_urban rail rail_electric rail_fast ship container cable_car subway aircraft wheelchair scooter drone" speed="6.55" length="8.75" shape="207.68,139.61 209.30,141.39 211.10,142.27 213.08,142.26 215.26,141.35"/>
    </edge>
    <edge id=":25272921_1" function="internal">
        <lane id=":25272921_1_0" index="0" disallow="tram rail_urban rail rail_electric rail_fast ship container cable_car subway aircraft wheelchair scooter drone" speed="8.33" length="10.75" shape="206.23,147.19 215.26,141.35"/>
    </edge>
    <edge id=":25272923_0" function="internal">
        <lane id=":25272923_0_0" index="0" disallow="tram rail_urban rail rail_electric rail_fast ship container cable_car subway aircraft wheelchair scooter drone" speed="8.33" length="11.45" shape="282.20,103.63 275.64,94.19"/>
        <lane id=":25272923_0_1" index="1" disallow="tram rail_urban rail rail_electric rail_fast ship container cable_car subway aircraft wheelchair scooter drone" speed="8.33" length="11.45" shape="284.80,101.77 278.29,92.40"/>
    </edge>
    <edge id=":25272923_2" function="internal">
        <lane id=":25272923_2_0" index="0" disallow="tram rail_urban rail rail_electric rail_fast ship container cable_car subway aircraft wheelchair scooter drone" speed="8.05" length="2.48" shape="284.80,101.77 283.99,99.43"/>
    </edge>
    <edge id=":25272923_3" function="internal">
        <lane id=":25272923_3_0" index="0" disallow="tram rail_urban rail rail_electric rail_fast ship container cable_car subway aircraft wheelchair scooter drone" speed="3.65" length="1.44" shape="284.80,101.77 284.75,100.33"/>
    </edge>
    <edge id=":25272923_11" function="internal">
        <lane id=":25272923_11_0" index="0" disallow="tram rail_urban rail rail_electric rail_fast ship container cable_car subway aircraft wheelchair scooter drone" speed="8.05" length="12.19" shape="283.99,99.43 283.94,99.27 284.75,96.53 287.23,93.53 291.39,90.29"/>
    </edge>
    <edge id=":25272923_12" function="internal">
        <lane id=":25272923_12_0" index="0" disallow="tram rail_urban rail rail_electric rail_fast ship container cable_car subway aircraft wheelchair scooter drone" speed="3.65" length="3.23" shape="284.75,100.33 285.17,99.54 286.06,99.40 287.40,99.92"/>
    </edge>
    <edge id=":25272923_4" function="internal">
        <lane id=":25272923_4_0" index="0" disallow="tram rail_urban rail rail_electric rail_fast ship container cable_car subway aircraft wheelchair scooter drone" speed="6.51" length="9.04" shape="283.60,88.82 285.25,90.65 287.10,91.50 289.15,91.38 291.39,90.29"/>
    </edge>
    <edge id=":25272923_5" function="internal">
        <lane id=":25272923_5_0" index="0" disallow="tram rail_urban rail rail_electric rail_fast ship container cable_car subway aircraft wheelchair scooter drone" speed="8.33" length="11.28" shape="283.60,88.82 290.01,98.06"/>
        <lane id=":25272923_5_1" index="1" disallow="tram rail_urban rail rail_electric rail_fast ship container cable_car subway aircraft wheelchair scooter drone" speed="8.33" length="11.28" shape="280.95,90.61 287.40,99.92"/>
    </edge>
    <edge id=":25272923_7" function="internal">
        <lane id=":25272923_7_0" index="0" disallow="tram rail_urban rail rail_electric rail_fast ship container cable_car subway aircraft wheelchair scooter drone" speed="3.65" length="1.44" shape="280.95,90.61 280.95,92.05"/>
    </edge>
    <edge id=":25272923_13" function="internal">
        <lane id=":25272923_13_0" index="0" disallow="tram rail_urban rail rail_electric rail_fast ship container cable_car subway aircraft wheelchair scooter drone" speed="3.65" length="3.23" shape="280.95,92.05 280.51,92.83 279.63,92.95 278.29,92.40"/>
    </edge>
    <edge id=":25272923_8" function="internal">
        <lane id=":25272923_8_0" index="0" disallow="tram rail_urban rail rail_electric rail_fast ship container cable_car subway aircraft wheelchair scooter drone" speed="6.52" length="9.11" shape="274.19,102.04 276.02,100.38 276.88,98.52 276.75,96.46 275.64,94.19"/>
    </edge>
    <edge id=":25272923_9" function="internal">
        <lane id=":25272923_9_0" index="0" disallow="tram rail_urban rail rail_electric rail_fast ship container cable_car subway aircraft wheelchair scooter drone" speed="8.33" length="20.82" shape="274.19,102.04 291.39,90.29"/>
    </edge>
    <edge id=":25272923_10" function="internal">
        <lane id=":25272923_10_0" index="0" disallow="tram rail_urban rail rail_electric rail_fast ship container cable_car subway aircraft wheelchair scooter drone" speed="8.21" length="14.65" shape="274.19,102.04 278.76,99.40 282.48,98.17 285.36,98.34 287.40,99.92"/>
    </edge>
    <edge id=":25272944_0" function="internal">
        <lane id=":25272944_0_0" index="0" disallow="tram rail_urban rail rail_electric rail_fast ship container cable_car subway aircraft wheelchair scooter drone" speed="8.33" length="10.60" shape="660.74,11.02 663.11,21.35"/>
    </edge>
    <edge id=":25272944_1" function="internal">
        <lane id=":25272944_1_0" index="0" disallow="tram rail_urban rail rail_electric rail_fast ship container cable_car subway aircraft wheelchair scooter drone" speed="7.69" length="8.80" shape="656.71,16.14 659.05,16.70 660.89,17.75 662.25,19.30 663.11,21.35"/>
    </edge>
    <edge id=":25272946_0" function="internal">
        <lane id=":25272946_0_0" index="0" disallow="tram rail_urban rail rail_electric rail_fast ship container cable_car subway aircraft wheelchair scooter drone" speed="13.89" length="14.17" shape="576.02,23.83 571.03,10.57"/>
    </edge>
    <edge id=":25272946_1" function="internal">
        <lane id=":25272946_1_0" index="0" disallow="tram rail_urban rail rail_electric rail_fast ship container cable_car subway aircraft wheelchair scooter drone" speed="6.15" length="9.99" width="5.00" shape="576.02,23.83 575.34,20.88 575.78,18.75 577.36,17.45 580.06,16.96"/>
    </edge>
    <edge id=":25272946_2" function="internal">
        <lane id=":25272946_2_0" index="0" disallow="tram rail_urban rail rail_electric rail_fast ship container cable_car subway aircraft wheelchair scooter drone" speed="6.29" length="9.81" shape="566.84,17.13 569.57,16.69 571.18,15.45 571.67,13.41 571.03,10.57"/>
    </edge>
    <edge id=":25272946_3" function="internal">
        <lane id=":25272946_3_0" index="0" disallow="tram rail_urban rail rail_electric rail_fast ship container cable_car subway aircraft wheelchair scooter drone" speed="8.33" length="13.22" width="5.00" shape="566.84,17.13 580.06,16.96"/>
    </edge>
    <edge id=":25272953_0" function="internal">
        <lane id=":25272953_0_0" index="0" disallow="tram rail_urban rail rail_electric rail_fast ship container cable_car subway aircraft wheelchair scooter drone" speed="8.33" length="7.32" shape="468.08,86.05 467.99,84.75 467.44,83.24 466.43,81.52 464.97,79.60"/>
    </edge>
    <edge id=":25272953_1" function="internal">
        <lane id=":25272953_1_0" index="0" disallow="tram rail_urban rail rail_electric rail_fast ship container cable_car subway aircraft wheelchair scooter drone" speed="8.33" length="7.70" shape="468.08,86.05 469.14,78.42"/>
    </edge>
    <edge id=":25273786_0" function="internal">
        <lane id=":25273786_0_0" index="0" disallow="tram rail_urban rail rail_electric rail_fast ship container cable_car subway aircraft wheelchair scooter drone" speed="7.36" length="11.70" shape="484.62,253.15 482.14,253.07 480.03,254.22 478.29,256.61 476.94,260.22"/>
    </edge>
    <edge id=":25273786_1" function="internal">
        <lane id=":25273786_1_0" index="0" disallow="tram rail_urban rail rail_electric rail_fast ship container cable_car subway aircraft wheelchair scooter drone" speed="3.65" length="1.44" shape="484.62,253.15 483.66,252.07"/>
    </edge>
    <edge id=":25273786_9" function="internal">
        <lane id=":25273786_9_0" index="0" disallow="tram rail_urban rail rail_electric rail_fast ship container cable_car subway aircraft wheelchair scooter drone" speed="3.65" length="3.23" shape="483.66,252.07 483.47,251.20 484.06,250.52 485.42,250.05"/>
    </edge>
    <edge id=":25273786_2" function="internal">
        <lane id=":25273786_2_0" index="0" disallow="tram rail_urban rail rail_electric rail_fast ship container cable_car subway aircraft wheelchair scooter drone" speed="6.82" length="10.17" shape="480.94,239.77 480.71,242.25 481.51,244.28 483.35,245.84 486.23,246.95"/>
    </edge>
    <edge id=":25273786_3" function="internal">
        <lane id=":25273786_3_0" index="0" disallow="tram rail_urban rail rail_electric rail_fast ship container cable_car subway aircraft wheelchair scooter drone" speed="8.33" length="20.84" shape="480.94,239.77 476.94,260.22"/>
    </edge>
    <edge id=":25273786_4" function="internal">
        <lane id=":25273786_4_0" index="0" disallow="tram rail_urban rail rail_electric rail_fast ship container cable_car subway aircraft wheelchair scooter drone" speed="8.33" length="14.52" shape="471.58,246.47 474.91,246.81 478.06,246.49 481.63,246.28 486.23,246.95"/>
        <lane id=":25273786_4_1" index="1" disallow="tram rail_urban rail rail_electric rail_fast ship container cable_car subway aircraft wheelchair scooter drone" speed="8.33" length="14.52" shape="471.58,246.47 485.42,250.05"/>
    </edge>
    <edge id=":25273786_6" function="internal">
        <lane id=":25273786_6_0" index="0" disallow="tram rail_urban rail rail_electric rail_fast ship container cable_car subway aircraft wheelchair scooter drone" speed="8.33" length="11.11" shape="471.58,246.47 475.12,248.15 477.19,251.01 477.74,254.63"/>
    </edge>
    <edge id=":25273786_10" function="internal">
        <lane id=":25273786_10_0" index="0" disallow="tram rail_urban rail rail_electric rail_fast ship container cable_car subway aircraft wheelchair scooter drone" speed="8.33" length="5.67" shape="477.74,254.63 477.80,255.03 476.94,260.22"/>
    </edge>
    <edge id=":25273786_7" function="internal">
        <lane id=":25273786_7_0" index="0" disallow="tram rail_urban rail rail_electric rail_fast ship container cable_car subway aircraft wheelchair scooter drone" speed="8.33" length="16.76" shape="473.85,259.37 475.77,254.48 478.33,251.29 481.55,249.82 485.42,250.05"/>
    </edge>
    <edge id=":25273786_8" function="internal">
        <lane id=":25273786_8_0" index="0" disallow="tram rail_urban rail rail_electric rail_fast ship container cable_car subway aircraft wheelchair scooter drone" speed="3.65" length="1.44" shape="473.85,259.37 474.94,258.43"/>
    </edge>
    <edge id=":25273786_11" function="internal">
        <lane id=":25273786_11_0" index="0" disallow="tram rail_urban rail rail_electric rail_fast ship container cable_car subway aircraft wheelchair scooter drone" speed="3.65" length="3.23" shape="474.94,258.43 475.82,258.25 476.49,258.85 476.94,260.22"/>
    </edge>
    <edge id=":25273838_0" function="internal">
        <lane id=":25273838_0_0" index="0" disallow="tram rail_urban rail rail_electric rail_fast ship container cable_car subway aircraft wheelchair scooter drone" speed="8.33" length="7.90" shape="485.27,217.20 489.62,223.80"/>
    </edge>
    <edge id=":25273838_1" function="internal">
        <lane id=":25273838_1_0" index="0" disallow="tram rail_urban rail rail_electric rail_fast ship container cable_car subway aircraft wheelchair scooter drone" speed="8.33" length="7.46" shape="485.27,217.20 485.79,218.48 485.96,220.12 485.78,222.12 485.24,224.48"/>
    </edge>
    <edge id=":25273842_0" function="internal">
        <lane id=":25273842_0_0" index="0" disallow="tram rail_urban rail rail_electric rail_fast ship container cable_car subway aircraft wheelchair scooter drone" speed="6.50" length="9.04" shape="525.13,167.54 524.77,165.09 523.70,163.35 521.94,162.32 519.48,162.00"/>
    </edge>
    <edge id=":25273842_1" function="internal">
        <lane id=":25273842_1_0" index="0" disallow="tram rail_urban rail rail_electric rail_fast ship container cable_car subway aircraft wheelchair scooter drone" speed="5.56" length="11.14" shape="530.63,162.00 519.48,162.00"/>
    </edge>
    <edge id=":25273843_0" function="internal">
        <lane id=":25273843_0_0" index="0" disallow="tram rail_urban rail rail_electric rail_fast ship container cable_car subway aircraft wheelchair scooter drone" speed="6.41" length="8.79" shape="609.33,166.79 608.97,164.50 607.91,162.87 606.14,161.90 603.66,161.58"/>
    </edge>
    <edge id=":25273843_1" function="internal">
        <lane id=":25273843_1_0" index="0" disallow="tram rail_urban rail rail_electric rail_fast ship container cable_car subway aircraft wheelchair scooter drone" speed="8.33" length="10.47" shape="609.33,166.79 608.90,156.33"/>
    </edge>
    <edge id=":25273865_0" function="internal">
        <lane id=":25273865_0_0" index="0" disallow="tram rail_urban rail rail_electric rail_fast ship container cable_car subway aircraft wheelchair scooter drone" speed="8.33" length="7.91" shape="104.99,161.63 97.34,159.74"/>
        <lane id=":25273865_0_1" index="1" disallow="tram rail_urban rail rail_electric rail_fast ship container cable_car subway aircraft wheelchair scooter drone" speed="8.33" length="7.91" shape="105.78,158.53 98.07,156.63"/>
    </edge>
    <edge id=":25273865_2" function="internal">
        <lane id=":25273865_2_0" index="0" disallow="tram rail_urban rail rail_electric rail_fast ship container cable_car subway aircraft wheelchair scooter drone" speed="8.33" length="8.86" shape="100.26,147.28 102.56,148.36 103.81,149.79 105.06,151.23 107.35,152.33"/>
        <lane id=":25273865_2_1" index="1" disallow="tram rail_urban rail rail_electric rail_fast ship container cable_car subway aircraft wheelchair scooter drone" speed="8.33" length="8.86" shape="99.53,150.40 101.81,151.47 103.05,152.90 104.29,154.34 106.57,155.43"/>
    </edge>
    <edge id=":25273867_0" function="internal">
        <lane id=":25273867_0_0" index="0" disallow="tram rail_urban rail rail_electric rail_fast ship container cable_car subway aircraft wheelchair scooter drone" speed="7.14" length="9.77" shape="683.67,184.15 681.03,185.16 679.22,186.64 678.23,188.59 678.07,191.00"/>
    </edge>
    <edge id=":25273867_1" function="internal">
        <lane id=":25273867_1_0" index="0" disallow="tram rail_urban rail rail_electric rail_fast ship container cable_car subway aircraft wheelchair scooter drone" speed="3.65" length="4.67" shape="683.67,184.15 682.31,183.65 681.73,182.97 681.93,182.10 682.91,181.04"/>
    </edge>
    <edge id=":25273867_2" function="internal">
        <lane id=":25273867_2_0" index="0" disallow="tram rail_urban rail rail_electric rail_fast ship container cable_car subway aircraft wheelchair scooter drone" speed="6.20" length="9.06" shape="676.67,176.62 677.28,179.09 678.52,180.65 680.40,181.30 682.91,181.04"/>
    </edge>
    <edge id=":25273867_3" function="internal">
        <lane id=":25273867_3_0" index="0" disallow="tram rail_urban rail rail_electric rail_fast ship container cable_car subway aircraft wheelchair scooter drone" speed="8.33" length="14.45" shape="676.67,176.62 678.07,191.00"/>
    </edge>
    <edge id=":25273868_0" function="internal">
        <lane id=":25273868_0_0" index="0" disallow="tram rail_urban rail rail_electric rail_fast ship container cable_car subway aircraft wheelchair scooter drone" speed="6.10" length="7.71" shape="700.12,176.66 701.51,176.71 702.73,177.61 703.79,179.36 704.70,181.97"/>
    </edge>
    <edge id=":25273868_1" function="internal">
        <lane id=":25273868_1_0" index="0" disallow="tram rail_urban rail rail_electric rail_fast ship container cable_car subway aircraft wheelchair scooter drone" speed="3.65" length="4.67" shape="700.12,176.66 701.48,177.14 702.07,177.81 701.88,178.69 700.91,179.76"/>
    </edge>
    <edge id=":2712550034_0" function="internal">
        <lane id=":2712550034_0_0" index="0" disallow="tram rail_urban rail rail_electric rail_fast ship container cable_car subway aircraft wheelchair scooter drone" speed="8.33" length="0.31" shape="393.49,378.19 393.25,378.40"/>
    </edge>
    <edge id=":2712550034_1" function="internal">
        <lane id=":2712550034_1_0" index="0" disallow="tram rail_urban rail rail_electric rail_fast ship container cable_car subway aircraft wheelchair scooter drone" speed="8.33" length="0.29" shape="391.15,375.99 391.36,375.80"/>
    </edge>
    <edge id=":29604212_0" function="internal">