<?xml version="1.0" encoding="UTF-8"?>

<!-- generated on 2025-03-20 16:23:09.034549 by osmWebWizard.py UNKNOWN
<configuration>
    <net-file value="/Users/arseneclaustre/Sumo/2025-03-20-16-22-56/osm.net.xml.gz"/>
    <output-trip-file value="/Users/arseneclaustre/Sumo/2025-03-20-16-22-56/osm.passenger.trips.xml"/>
    <route-file value="/Users/arseneclaustre/Sumo/2025-03-20-16-22-56/osm.passenger.rou.xml"/>
    <prefix value="veh"/>
    <trip-attributes value="departLane=&quot;best&quot;"/>
    <fringe-start-attributes value="departSpeed=&quot;max&quot;"/>
    <vehicle-class value="passenger"/>
    <lanes value="True"/>
    <fringe-factor value="5"/>
    <allow-fringe.min-length value="1000.0"/>
    <via-edge-types value="highway.motorway,highway.motorway_link,highway.trunk_link,highway.primary_link,highway.secondary_link,highway.tertiary_link"/>
    <min-distance value="300.0"/>
    <min-distance.fringe value="10.0"/>
    <remove-loops value="True"/>
    <validate value="True"/>
    <insertion-density value="300.0"/>
</configuration>
-->

<!-- generated on 2025-03-20 16:23:08 by Eclipse SUMO duarouter Version 1.22.0
<duarouterConfiguration xmlns:xsi="http://www.w3.org/2001/XMLSchema-instance" xsi:noNamespaceSchemaLocation="http://sumo.dlr.de/xsd/duarouterConfiguration.xsd">

    <input>
        <net-file value="/Users/arseneclaustre/Sumo/2025-03-20-16-22-56/osm.net.xml.gz"/>
        <route-files value="/Users/arseneclaustre/Sumo/2025-03-20-16-22-56/osm.passenger.trips.xml"/>
    </input>

    <output>
        <output-file value="/Users/arseneclaustre/Sumo/2025-03-20-16-22-56/osm.passenger.trips.xml.tmp"/>
        <alternatives-output value="NUL"/>
        <write-trips value="true"/>
    </output>

    <processing>
        <remove-loops value="true"/>
    </processing>

    <time>
        <begin value="0.0"/>
        <end value="3600.0"/>
    </time>

    <report>
        <no-warnings value="true"/>
        <ignore-errors value="true"/>
        <no-step-log value="true"/>
    </report>

</duarouterConfiguration>
-->

<routes xmlns:xsi="http://www.w3.org/2001/XMLSchema-instance" xsi:noNamespaceSchemaLocation="http://sumo.dlr.de/xsd/routes_file.xsd">
    <vType id="veh_passenger" vClass="passenger"/>
    <trip id="veh4" type="veh_passenger" depart="5.62" departLane="best" departSpeed="max" from="54186296" to="4039092#0"/>
    <trip id="veh6" type="veh_passenger" depart="8.43" departLane="best" departSpeed="max" from="25325260#0" to="-478835108#7"/>
    <trip id="veh7" type="veh_passenger" depart="9.84" departLane="best" departSpeed="max" from="80853522#0" to="13470545#5"/>
    <trip id="veh8" type="veh_passenger" depart="11.24" departLane="best" departSpeed="max" from="678797210" to="4251076#0"/>
    <trip id="veh9" type="veh_passenger" depart="12.65" departLane="best" departSpeed="max" from="478835108#0" to="91301109#0"/>
    <trip id="veh10" type="veh_passenger" depart="14.05" departLane="best" departSpeed="max" from="678797210" to="4251079#0"/>
    <trip id="veh11" type="veh_passenger" depart="15.46" departLane="best" departSpeed="max" from="678797210" to="4251035#2"/>
    <trip id="veh12" type="veh_passenger" depart="16.86" departLane="best" departSpeed="max" from="542068896#0" to="-25325260#0"/>
    <trip id="veh15" type="veh_passenger" depart="21.08" departLane="best" departSpeed="max" from="54186296" to="1353956402"/>
    <trip id="veh16" type="veh_passenger" depart="22.49" departLane="best" departSpeed="max" from="54186296" to="4251077#0"/>
    <trip id="veh17" type="veh_passenger" depart="23.89" departLane="best" from="-879212260" to="54381007#0"/>
    <trip id="veh18" type="veh_passenger" depart="25.30" departLane="best" from="-743357024#5" to="187019915#4"/>
    <trip id="veh19" type="veh_passenger" depart="26.70" departLane="best" from="-879212260" to="4251082#0"/>
    <trip id="veh21" type="veh_passenger" depart="29.51" departLane="best" departSpeed="max" from="678797210" to="1113020823"/>
    <trip id="veh22" type="veh_passenger" depart="30.92" departLane="best" departSpeed="max" from="54186296" to="187019916#0"/>
    <trip id="veh25" type="veh_passenger" depart="35.13" departLane="best" from="4018042#2" to="-54572725#1"/>
    <trip id="veh27" type="veh_passenger" depart="37.95" departLane="best" from="-68915107#3" to="4251082#0"/>
    <trip id="veh28" type="veh_passenger" depart="39.35" departLane="best" from="675036499#0" to="187019916#0"/>
    <trip id="veh30" type="veh_passenger" depart="42.16" departLane="best" departSpeed="max" from="80853522#0" to="69315571#4"/>
    <trip id="veh31" type="veh_passenger" depart="43.57" departLane="best" departSpeed="max" from="542068896#0" to="4018042#2"/>
    <trip id="veh32" type="veh_passenger" depart="44.97" departLane="best" from="-68915107#3" to="187019916#0"/>
    <trip id="veh33" type="veh_passenger" depart="46.38" departLane="best" from="-4251064#1" to="879212260"/>
    <trip id="veh35" type="veh_passenger" depart="49.19" departLane="best" departSpeed="max" from="25325260#0" to="4251082#0"/>
    <trip id="veh36" type="veh_passenger" depart="50.59" departLane="best" departSpeed="max" from="54186296" to="-478835108#7"/>
    <trip id="veh37" type="veh_passenger" depart="52.00" departLane="best" from="-16405437#1" to="13470545#11"/>
    <trip id="veh38" type="veh_passenger" depart="53.40" departLane="best" from="379447184" to="743357024#3"/>
    <trip id="veh39" type="veh_passenger" depart="54.81" departLane="best" departSpeed="max" from="678797210" to="69315571#1"/>
    <trip id="veh40" type="veh_passenger" depart="56.22" departLane="best" departSpeed="max" from="678797210" to="879212260"/>
    <trip id="veh42" type="veh_passenger" depart="59.03" departLane="best" from="54667455#0" to="-478835108#0"/>
    <trip id="veh45" type="veh_passenger" depart="63.24" departLane="best" departSpeed="max" from="478835108#0" to="54424484#1"/>
    <trip id="veh46" type="veh_passenger" depart="64.65" departLane="best" departSpeed="max" from="10662567#0" to="1113020823"/>
    <trip id="veh47" type="veh_passenger" depart="66.05" departLane="best" from="-879212260" to="4251088#0"/>
    <trip id="veh48" type="veh_passenger" depart="67.46" departLane="best" departSpeed="max" from="678797210" to="379447185"/>
    <trip id="veh52" type="veh_passenger" depart="73.08" departLane="best" from="-540563721#1" to="187019916#0"/>
    <trip id="veh54" type="veh_passenger" depart="75.89" departLane="best" from="4251062#0" to="69315571#4"/>
    <trip id="veh56" type="veh_passenger" depart="78.70" departLane="best" departSpeed="max" from="678797210" to="-478835108#9"/>
    <trip id="veh57" type="veh_passenger" depart="80.11" departLane="best" from="-743357024#5" to="-54186296"/>
    <trip id="veh58" type="veh_passenger" depart="81.51" departLane="best" from="4039092#0" to="-379447184"/>
    <trip id="veh59" type="veh_passenger" depart="82.92" departLane="best" from="-379447185" to="971432939"/>
    <trip id="veh60" type="veh_passenger" depart="84.32" departLane="best" from="4251064#0" to="187019916#0"/>
    <trip id="veh61" type="veh_passenger" depart="85.73" departLane="best" departSpeed="max" from="80853522#0" to="971432939"/>
    <trip id="veh63" type="veh_passenger" depart="88.54" departLane="best" departSpeed="max" from="80853522#0" to="4251062#0"/>
    <trip id="veh64" type="veh_passenger" depart="89.95" departLane="best" departSpeed="max" from="478835108#0" to="54424484#1"/>
    <trip id="veh65" type="veh_passenger" depart="91.35" departLane="best" from="-743357024#5" to="91301109#0"/>
    <trip id="veh68" type="veh_passenger" depart="95.57" departLane="best" from="4651918#0" to="743357025#0"/>
    <trip id="veh69" type="veh_passenger" depart="96.97" departLane="best" departSpeed="max" from="54186296" to="1113020823"/>
    <trip id="veh71" type="veh_passenger" depart="99.78" departLane="best" from="-68915107#3" to="69315571#4"/>
    <trip id="veh72" type="veh_passenger" depart="101.19" departLane="best" from="379447184" to="-478835108#7"/>
    <trip id="veh73" type="veh_passenger" depart="102.59" departLane="best" departSpeed="max" from="54186296" to="971432939"/>
    <trip id="veh74" type="veh_passenger" depart="104.00" departLane="best" departSpeed="max" from="678797210" to="1113020823"/>
    <trip id="veh75" type="veh_passenger" depart="105.40" departLane="best" from="-70995648#2" to="-478835108#0"/>
    <trip id="veh76" type="veh_passenger" depart="106.81" departLane="best" departSpeed="max" from="542068896#0" to="-54186296"/>
    <trip id="veh77" type="veh_passenger" depart="108.22" departLane="best" departSpeed="max" from="54186296" to="-743357024#2"/>
    <trip id="veh78" type="veh_passenger" depart="109.62" departLane="best" departSpeed="max" from="678797210" to="4018042#2"/>
    <trip id="veh79" type="veh_passenger" depart="111.03" departLane="best" departSpeed="max" from="54186296" to="-70995648#2"/>
    <trip id="veh82" type="veh_passenger" depart="115.24" departLane="best" departSpeed="max" from="678797210" to="4251062#0"/>
    <trip id="veh83" type="veh_passenger" depart="116.65" departLane="best" from="-743357024#2" to="-478835108#0"/>
    <trip id="veh84" type="veh_passenger" depart="118.05" departLane="best" from="675036500#0" to="69315571#4"/>
    <trip id="veh86" type="veh_passenger" depart="120.86" departLane="best" from="1353956402" to="-478835108#0"/>
    <trip id="veh87" type="veh_passenger" depart="122.27" departLane="best" from="54667455#0" to="69315571#4"/>
    <trip id="veh88" type="veh_passenger" depart="123.67" departLane="best" from="675036502#4" to="69315571#4"/>
    <trip id="veh89" type="veh_passenger" depart="125.08" departLane="best" from="379447184" to="54424484#1"/>
    <trip id="veh90" type="veh_passenger" depart="126.49" departLane="best" from="54667461" to="-478835108#0"/>
    <trip id="veh91" type="veh_passenger" depart="127.89" departLane="best" departSpeed="max" from="678797210" to="69315571#4"/>
    <trip id="veh93" type="veh_passenger" depart="130.70" departLane="best" departSpeed="max" from="25325260#0" to="69315571#4"/>
    <trip id="veh94" type="veh_passenger" depart="132.11" departLane="best" departSpeed="max" from="54186296" to="187019916#0"/>
    <trip id="veh95" type="veh_passenger" depart="133.51" departLane="best" from="743357024#0" to="-478835108#0"/>
    <trip id="veh96" type="veh_passenger" depart="134.92" departLane="best" from="-68915107#3" to="187019916#0"/>
    <trip id="veh97" type="veh_passenger" depart="136.32" departLane="best" from="542068896#2" to="1113020823"/>
    <trip id="veh102" type="veh_passenger" depart="143.35" departLane="best" departSpeed="max" from="54186296" to="13470545#11"/>
    <trip id="veh103" type="veh_passenger" depart="144.76" departLane="best" departSpeed="max" from="25325260#0" to="69315571#4"/>
    <trip id="veh104" type="veh_passenger" depart="146.16" departLane="best" departSpeed="max" from="542068896#0" to="1113020823"/>
    <trip id="veh105" type="veh_passenger" depart="147.57" departLane="best" departSpeed="max" from="25325260#0" to="187019916#0"/>
    <trip id="veh106" type="veh_passenger" depart="148.97" departLane="best" from="-743357024#2" to="4651918#0"/>
    <trip id="veh108" type="veh_passenger" depart="151.78" departLane="best" departSpeed="max" from="25325260#0" to="4039483#0"/>
    <trip id="veh113" type="veh_passenger" depart="158.81" departLane="best" departSpeed="max" from="54186296" to="13470545#5"/>
    <trip id="veh114" type="veh_passenger" depart="160.21" departLane="best" departSpeed="max" from="54186296" to="-68915107#3"/>
    <trip id="veh116" type="veh_passenger" depart="163.03" departLane="best" departSpeed="max" from="678797210" to="379447185"/>
    <trip id="veh118" type="veh_passenger" depart="165.84" departLane="best" from="-68915107#3" to="187019916#0"/>
    <trip id="veh119" type="veh_passenger" depart="167.24" departLane="best" from="-879212260" to="91301109#0"/>
    <trip id="veh120" type="veh_passenger" depart="168.65" departLane="best" from="1353956402" to="69315571#4"/>
    <trip id="veh121" type="veh_passenger" depart="170.05" departLane="best" departSpeed="max" from="54186296" to="971432939"/>
    <trip id="veh123" type="veh_passenger" depart="172.86" departLane="best" from="-69315569#1" to="54424484#1"/>
    <trip id="veh125" type="veh_passenger" depart="175.67" departLane="best" from="54667455#0" to="379447185"/>
    <trip id="veh126" type="veh_passenger" depart="177.08" departLane="best" departSpeed="max" from="54186296" to="-743357024#5"/>
    <trip id="veh128" type="veh_passenger" depart="179.89" departLane="best" departSpeed="max" from="542068896#0" to="-379447184"/>
    <trip id="veh130" type="veh_passenger" depart="182.70" departLane="best" departSpeed="max" from="678797210" to="879212260"/>
    <trip id="veh131" type="veh_passenger" depart="184.11" departLane="best" departSpeed="max" from="4039406" to="54424484#1"/>
    <trip id="veh132" type="veh_passenger" depart="185.51" departLane="best" departSpeed="max" from="25325260#0" to="4651918#0"/>
    <trip id="veh133" type="veh_passenger" depart="186.92" departLane="best" departSpeed="max" from="4251071#0" to="-478835108#0"/>
    <trip id="veh134" type="veh_passenger" depart="188.32" departLane="best" from="-379447185" to="4251082#0"/>
    <trip id="veh135" type="veh_passenger" depart="189.73" departLane="best" from="-4018042#3" to="187019915#0"/>
    <trip id="veh136" type="veh_passenger" depart="191.13" departLane="best" from="54667455#0" to="187019915#0"/>
    <trip id="veh137" type="veh_passenger" depart="192.54" departLane="best" from="379447184" to="4018042#2"/>
    <trip id="veh138" type="veh_passenger" depart="193.94" departLane="best" from="-971432940" to="13470545#7"/>
    <trip id="veh139" type="veh_passenger" depart="195.35" departLane="best" departSpeed="max" from="54186296" to="54667461"/>
    <trip id="veh140" type="veh_passenger" depart="196.75" departLane="best" departSpeed="max" from="54186296" to="-70995648#2"/>
    <trip id="veh141" type="veh_passenger" depart="198.16" departLane="best" from="-743357024#5" to="-54186296"/>
    <trip id="veh142" type="veh_passenger" depart="199.57" departLane="best" from="379447184" to="-478835108#7"/>
    <trip id="veh144" type="veh_passenger" depart="202.38" departLane="best" from="-879212260" to="4251076#3"/>
    <trip id="veh145" type="veh_passenger" depart="203.78" departLane="best" departSpeed="max" from="25325260#0" to="4651918#0"/>
    <trip id="veh146" type="veh_passenger" depart="205.19" departLane="best" departSpeed="max" from="80853522#0" to="187019916#0"/>
    <trip id="veh147" type="veh_passenger" depart="206.59" departLane="best" departSpeed="max" from="542068896#0" to="4251082#0"/>
    <trip id="veh149" type="veh_passenger" depart="209.40" departLane="best" departSpeed="max" from="678797210" to="4251076#0"/>
    <trip id="veh150" type="veh_passenger" depart="210.81" departLane="best" from="-69315569#1" to="971432939"/>
    <trip id="veh151" type="veh_passenger" depart="212.21" departLane="best" departSpeed="max" from="678797210" to="69315571#1"/>
    <trip id="veh152" type="veh_passenger" depart="213.62" departLane="best" from="-68915107#3" to="91301109#0"/>
    <trip id="veh153" type="veh_passenger" depart="215.02" departLane="best" departSpeed="max" from="54186296" to="69315571#1"/>
    <trip id="veh154" type="veh_passenger" depart="216.43" departLane="best" departSpeed="max" from="542068896#0" to="187019916#0"/>
    <trip id="veh157" type="veh_passenger" depart="220.65" departLane="best" from="4251033#0" to="54424484#1"/>
    <trip id="veh158" type="veh_passenger" depart="222.05" departLane="best" from="187019915#0" to="69315571#4"/>
    <trip id="veh159" type="veh_passenger" depart="223.46" departLane="best" departSpeed="max" from="678797210" to="743357025#0"/>
    <trip id="veh160" type="veh_passenger" depart="224.86" departLane="best" departSpeed="max" from="678797210" to="-54186296"/>
    <trip id="veh161" type="veh_passenger" depart="226.27" departLane="best" departSpeed="max" from="25325260#0" to="69315571#4"/>
    <trip id="veh162" type="veh_passenger" depart="227.67" departLane="best" departSpeed="max" from="542068896#0" to="743357024#3"/>
    <trip id="veh163" type="veh_passenger" depart="229.08" departLane="best" departSpeed="max" from="542068896#0" to="4251088#0"/>
    <trip id="veh164" type="veh_passenger" depart="230.48" departLane="best" departSpeed="max" from="542068896#0" to="1113020823"/>
    <trip id="veh165" type="veh_passenger" depart="231.89" departLane="best" departSpeed="max" from="542068896#0" to="743357024#3"/>
    <trip id="veh166" type="veh_passenger" depart="233.29" departLane="best" from="1353956402" to="-478835108#0"/>
    <trip id="veh170" type="veh_passenger" depart="238.92" departLane="best" from="192903841#0" to="-478835108#0"/>
    <trip id="veh174" type="veh_passenger" depart="244.54" departLane="best" departSpeed="max" from="542068896#0" to="-478835108#0"/>
    <trip id="veh175" type="veh_passenger" depart="245.94" departLane="best" departSpeed="max" from="678797210" to="379446077"/>
    <trip id="veh176" type="veh_passenger" depart="247.35" departLane="best" departSpeed="max" from="678797210" to="4251035#2"/>
    <trip id="veh178" type="veh_passenger" depart="250.16" departLane="best" departSpeed="max" from="678797210" to="187019916#0"/>
    <trip id="veh179" type="veh_passenger" depart="251.56" departLane="best" from="-4018042#3" to="-478835108#5"/>
    <trip id="veh180" type="veh_passenger" depart="252.97" departLane="best" departSpeed="max" from="478835108#0" to="1113020823"/>
    <trip id="veh181" type="veh_passenger" depart="254.38" departLane="best" from="-879212260" to="-478835108#0"/>
    <trip id="veh182" type="veh_passenger" depart="255.78" departLane="best" from="4251062#0" to="69315571#4"/>
    <trip id="veh183" type="veh_passenger" depart="257.19" departLane="best" from="-879212260" to="1113020823"/>
    <trip id="veh184" type="veh_passenger" depart="258.59" departLane="best" departSpeed="max" from="54186296" to="4251077#0"/>
    <trip id="veh187" type="veh_passenger" depart="262.81" departLane="best" departSpeed="max" from="54186296" to="-478835108#7"/>
    <trip id="veh189" type="veh_passenger" depart="265.62" departLane="best" departSpeed="max" from="542068896#0" to="743357024#0"/>
    <trip id="veh190" type="veh_passenger" depart="267.02" departLane="best" from="54667461" to="4251082#0"/>
    <trip id="veh191" type="veh_passenger" depart="268.43" departLane="best" departSpeed="max" from="54186296" to="743357025#0"/>
    <trip id="veh192" type="veh_passenger" depart="269.84" departLane="best" departSpeed="max" from="54186296" to="-70995648#2"/>
    <trip id="veh193" type="veh_passenger" depart="271.24" departLane="best" departSpeed="max" from="678797210" to="379447185"/>
    <trip id="veh194" type="veh_passenger" depart="272.65" departLane="best" from="-879212260" to="1113020823"/>
    <trip id="veh196" type="veh_passenger" depart="275.46" departLane="best" departSpeed="max" from="542068896#0" to="-478835108#9"/>
    <trip id="veh197" type="veh_passenger" depart="276.86" departLane="best" from="-743357024#5" to="379446079#0"/>
    <trip id="veh198" type="veh_passenger" depart="278.27" departLane="best" from="-379447185" to="187019916#0"/>
    <trip id="veh199" type="veh_passenger" depart="279.67" departLane="best" departSpeed="max" from="678797210" to="4251035#2"/>
    <trip id="veh200" type="veh_passenger" depart="281.08" departLane="best" from="-743357024#5" to="971432940"/>
    <trip id="veh201" type="veh_passenger" depart="282.48" departLane="best" departSpeed="max" from="54186296" to="-743357024#2"/>
    <trip id="veh203" type="veh_passenger" depart="285.29" departLane="best" from="70995648#0" to="-54186296"/>
    <trip id="veh204" type="veh_passenger" depart="286.70" departLane="best" from="25325260#1" to="13470545#11"/>
    <trip id="veh205" type="veh_passenger" depart="288.11" departLane="best" departSpeed="max" from="54186296" to="69315571#4"/>
    <trip id="veh207" type="veh_passenger" depart="290.92" departLane="best" departSpeed="max" from="25325260#0" to="91301109#0"/>
    <trip id="veh208" type="veh_passenger" depart="292.32" departLane="best" from="4039092#0" to="-379447184"/>
    <trip id="veh211" type="veh_passenger" depart="296.54" departLane="best" from="4251033#0" to="478835108#9"/>
    <trip id="veh212" type="veh_passenger" depart="297.94" departLane="best" from="-69315569#1" to="91301109#0"/>
    <trip id="veh215" type="veh_passenger" depart="302.16" departLane="best" from="4251065#0" to="-478835108#0"/>
    <trip id="veh216" type="veh_passenger" depart="303.56" departLane="best" departSpeed="max" from="678797210" to="379446077"/>
    <trip id="veh217" type="veh_passenger" depart="304.97" departLane="best" from="80853522#1" to="-70995646#2"/>
    <trip id="veh218" type="veh_passenger" depart="306.38" departLane="best" from="70995648#0" to="-379447184"/>
    <trip id="veh219" type="veh_passenger" depart="307.78" departLane="best" departSpeed="max" from="678797210" to="69315571#4"/>
    <trip id="veh220" type="veh_passenger" depart="309.19" departLane="best" from="192903841#0" to="675036500#0"/>
    <trip id="veh223" type="veh_passenger" depart="313.40" departLane="best" from="192903841#0" to="1113020823"/>
    <trip id="veh227" type="veh_passenger" depart="319.02" departLane="best" departSpeed="max" from="678797210" to="187019916#0"/>
    <trip id="veh228" type="veh_passenger" depart="320.43" departLane="best" from="542068896#2" to="187019916#0"/>
    <trip id="veh229" type="veh_passenger" depart="321.83" departLane="best" departSpeed="max" from="54186296" to="-478835108#7"/>
    <trip id="veh230" type="veh_passenger" depart="323.24" departLane="best" departSpeed="max" from="4251071#0" to="91301109#0"/>
    <trip id="veh231" type="veh_passenger" depart="324.65" departLane="best" departSpeed="max" from="54186296" to="69315571#4"/>
    <trip id="veh232" type="veh_passenger" depart="326.05" departLane="best" departSpeed="max" from="678797210" to="69315571#4"/>
    <trip id="veh233" type="veh_passenger" depart="327.46" departLane="best" from="-379447185" to="1113020823"/>
    <trip id="veh234" type="veh_passenger" depart="328.86" departLane="best" departSpeed="max" from="678797210" to="-25325260#0"/>
    <trip id="veh235" type="veh_passenger" depart="330.27" departLane="best" departSpeed="max" from="678797210" to="187019916#0"/>
    <trip id="veh236" type="veh_passenger" depart="331.67" departLane="best" departSpeed="max" from="678797210" to="4251079#0"/>
    <trip id="veh238" type="veh_passenger" depart="334.48" departLane="best" from="-743357024#5" to="187019916#0"/>
    <trip id="veh239" type="veh_passenger" depart="335.89" departLane="best" departSpeed="max" from="54186296" to="187019916#0"/>
    <trip id="veh240" type="veh_passenger" depart="337.29" departLane="best" from="1353956402" to="69315571#4"/>
    <trip id="veh241" type="veh_passenger" depart="338.70" departLane="best" departSpeed="max" from="10662567#0" to="187019916#0"/>
    <trip id="veh244" type="veh_passenger" depart="342.92" departLane="best" from="-879212260" to="-971432940"/>
    <trip id="veh245" type="veh_passenger" depart="344.32" departLane="best" from="80853522#1" to="4651915#6"/>
    <trip id="veh247" type="veh_passenger" depart="347.13" departLane="best" departSpeed="max" from="542068896#0" to="54424484#1"/>
    <trip id="veh249" type="veh_passenger" depart="349.94" departLane="best" from="-540563721#1" to="13470545#7"/>
    <trip id="veh250" type="veh_passenger" depart="351.35" departLane="best" departSpeed="max" from="54186296" to="4251079#3"/>
    <trip id="veh251" type="veh_passenger" depart="352.75" departLane="best" departSpeed="max" from="54186296" to="69315571#4"/>
    <trip id="veh252" type="veh_passenger" depart="354.16" departLane="best" departSpeed="max" from="54186296" to="-70995648#2"/>
    <trip id="veh253" type="veh_passenger" depart="355.56" departLane="best" departSpeed="max" from="54186296" to="1113020823"/>
    <trip id="veh254" type="veh_passenger" depart="356.97" departLane="best" from="251058109#0" to="54424484#1"/>
    <trip id="veh255" type="veh_passenger" depart="358.37" departLane="best" from="-879212260" to="-478835108#0"/>
    <trip id="veh256" type="veh_passenger" depart="359.78" departLane="best" departSpeed="max" from="478835108#0" to="91301109#0"/>
    <trip id="veh258" type="veh_passenger" depart="362.59" departLane="best" departSpeed="max" from="678797210" to="379446077"/>
    <trip id="veh259" type="veh_passenger" depart="364.00" departLane="best" departSpeed="max" from="25325260#0" to="-478835108#0"/>
    <trip id="veh260" type="veh_passenger" depart="365.40" departLane="best" departSpeed="max" from="80853522#0" to="-478835108#0"/>
    <trip id="veh261" type="veh_passenger" depart="366.81" departLane="best" departSpeed="max" from="80853522#0" to="69315571#4"/>
    <trip id="veh262" type="veh_passenger" depart="368.21" departLane="best" from="379447184" to="675036500#0"/>
    <trip id="veh263" type="veh_passenger" depart="369.62" departLane="best" from="-4251064#1" to="4651915#6"/>
    <trip id="veh264" type="veh_passenger" depart="371.02" departLane="best" departSpeed="max" from="54186296" to="4251063#0"/>
    <trip id="veh266" type="veh_passenger" depart="373.83" departLane="best" from="379447184" to="69315571#4"/>
    <trip id="veh269" type="veh_passenger" depart="378.05" departLane="best" departSpeed="max" from="25325260#0" to="187019916#0"/>
    <trip id="veh270" type="veh_passenger" depart="379.46" departLane="best" departSpeed="max" from="54186296" to="54424484#1"/>
    <trip id="veh271" type="veh_passenger" depart="380.86" departLane="best" from="-743357024#5" to="187019916#0"/>
    <trip id="veh273" type="veh_passenger" depart="383.67" departLane="best" from="379447184" to="187019916#0"/>
    <trip id="veh274" type="veh_passenger" depart="385.08" departLane="best" from="-743357024#5" to="69315571#4"/>
    <trip id="veh275" type="veh_passenger" depart="386.48" departLane="best" departSpeed="max" from="478835108#0" to="971432939"/>
    <trip id="veh276" type="veh_passenger" depart="387.89" departLane="best" from="379446079#0" to="187019916#0"/>
    <trip id="veh277" type="veh_passenger" depart="389.29" departLane="best" departSpeed="max" from="678797210" to="24658850#0"/>
    <trip id="veh278" type="veh_passenger" depart="390.70" departLane="best" departSpeed="max" from="54186296" to="4251082#0"/>
    <trip id="veh280" type="veh_passenger" depart="393.51" departLane="best" departSpeed="max" from="678797210" to="13470545#11"/>
    <trip id="veh281" type="veh_passenger" depart="394.91" departLane="best" from="-70995648#2" to="-478835108#0"/>
    <trip id="veh284" type="veh_passenger" depart="399.13" departLane="best" from="54667455#0" to="-379447184"/>
    <trip id="veh285" type="veh_passenger" depart="400.54" departLane="best" from="54667459#0" to="69315571#4"/>
    <trip id="veh286" type="veh_passenger" depart="401.94" departLane="best" from="4651918#0" to="24658850#0"/>
    <trip id="veh287" type="veh_passenger" depart="403.35" departLane="best" departSpeed="max" from="542068896#0" to="379446077"/>
    <trip id="veh290" type="veh_passenger" depart="407.56" departLane="best" departSpeed="max" from="54186296" to="4039483#0"/>
    <trip id="veh291" type="veh_passenger" depart="408.97" departLane="best" departSpeed="max" from="25325260#0" to="971432939"/>
    <trip id="veh294" type="veh_passenger" depart="413.18" departLane="best" departSpeed="max" from="542068896#0" to="69315571#4"/>
    <trip id="veh295" type="veh_passenger" depart="414.59" departLane="best" departSpeed="max" from="54186296" to="-70995648#2"/>
    <trip id="veh296" type="veh_passenger" depart="416.00" departLane="best" from="542068896#2" to="-54186296"/>
    <trip id="veh299" type="veh_passenger" depart="420.21" departLane="best" from="-379447185" to="-478835108#7"/>
    <trip id="veh300" type="veh_passenger" depart="421.62" departLane="best" from="70995648#0" to="379447185"/>
    <trip id="veh301" type="veh_passenger" depart="423.02" departLane="best" departSpeed="max" from="678797210" to="4018042#2"/>
    <trip id="veh302" type="veh_passenger" depart="424.43" departLane="best" from="-540563721#1" to="54424484#1"/>
    <trip id="veh305" type="veh_passenger" depart="428.64" departLane="best" departSpeed="max" from="25325260#0" to="-478835108#0"/>
    <trip id="veh306" type="veh_passenger" depart="430.05" departLane="best" from="27873421#0" to="4651915#6"/>
    <trip id="veh308" type="veh_passenger" depart="432.86" departLane="best" departSpeed="max" from="54186296" to="-68915107#3"/>
    <trip id="veh309" type="veh_passenger" depart="434.27" departLane="best" from="-68915107#3" to="69315571#4"/>
    <trip id="veh310" type="veh_passenger" depart="435.67" departLane="best" from="379447184" to="-70995648#2"/>
    <trip id="veh312" type="veh_passenger" depart="438.48" departLane="best" departSpeed="max" from="678797210" to="4251077#3"/>
    <trip id="veh313" type="veh_passenger" depart="439.89" departLane="best" from="70995649" to="69315571#1"/>
    <trip id="veh315" type="veh_passenger" depart="442.70" departLane="best" departSpeed="max" from="542068896#0" to="1113020823"/>
    <trip id="veh316" type="veh_passenger" depart="444.10" departLane="best" departSpeed="max" from="678797210" to="4251035#2"/>
    <trip id="veh317" type="veh_passenger" depart="445.51" departLane="best" from="4039092#0" to="-478835108#5"/>
    <trip id="veh319" type="veh_passenger" depart="448.32" departLane="best" departSpeed="max" from="54186296" to="-743357024#5"/>
    <trip id="veh320" type="veh_passenger" depart="449.73" departLane="best" departSpeed="max" from="542068896#0" to="379446077"/>