<?xml version="1.0" encoding="UTF-8"?>
<routes xmlns:xsi="http://www.w3.org/2001/XMLSchema-instance" xsi:noNamespaceSchemaLocation="http://sumo.dlr.de/xsd/routes_file.xsd">

<!-- Vehicules Types -->
<vType id="cautious" guiShape="passenger" accel="2" decel="5" sigma="0.3" length="4"
       minGap="1.5" maxSpeed="30" color="0,0,1" carFollowModel="Krauss"/>

<vType id="aggressive" guiShape="passenger" accel="5" decel="10" sigma="1.2" length="4"
       minGap="0.5" maxSpeed="40" color="1,0,0" carFollowModel="IDM"/>

<vType id="motorcycle" guiShape="motorcycle" accel="6" decel="8" sigma="0.8" length="2"
       minGap="0.3" maxSpeed="50" color="1,1,1" carFollowModel="Krauss"/>

<vType id="truck" guiShape="truck" accel="1" decel="3" sigma="0.5" length="12"
       minGap="2.5" maxSpeed="25" color="1,1,1" carFollowModel="IDM"/>

<vType id="bus" guiShape="bus" accel="1.2" decel="4" sigma="0.6" length="12"
       minGap="3.0" maxSpeed="20" color="1,1,0" carFollowModel="Krauss"/>



    <!-- Routes -->
    <route id="r_A_B" edges="end_A_junction_1 end_A_end_B"/>
    <route id="r_A_C" edges="end_A_junction_1 junction_1_junction_2 junction_2_end_C"/>
    <route id="r_A_D" edges="end_A_junction_1 junction_1_junction_2 junction_2_end_D"/>
    <route id="r_A_E" edges="end_A_junction_1 junction_1_junction_6 junction_6_junction_3 junction_3_end_E"/>
    <route id="r_A_F" edges="end_A_junction_1 junction_1_junction_6 junction_6_junction_3 junction_3_junction_4 junction_4_end_F"/>
    <route id="r_A_G" edges="end_A_junction_1 junction_1_junction_6 junction_6_junction_3 junction_3_junction_4 junction_4_end_G"/>
    <route id="r_A_H" edges="end_A_junction_1 junction_1_junction_6 junction_6_junction_5 junction_5_end_H"/>
    <route id="r_A_I" edges="end_A_junction_1 junction_1_junction_6 junction_6_junction_5 junction_5_end_I"/>
    <route id="r_A_J" edges="end_A_junction_1 junction_1_junction_6 junction_6_end_J"/>
    <route id="r_B_A" edges="end_B_junction_1 junction_1_end_A"/>
    <route id="r_B_C" edges="end_B_junction_1 junction_1_junction_2 junction_2_end_C"/>
    <route id="r_B_D" edges="end_B_junction_1 junction_1_junction_2 junction_2_end_D"/>
    <route id="r_B_E" edges="end_B_junction_1 junction_1_junction_6 junction_6_junction_3 junction_3_end_E"/>
    <route id="r_B_F" edges="end_B_junction_1 junction_1_junction_6 junction_6_junction_3 junction_3_junction_4 junction_4_end_F"/>
    <route id="r_B_G" edges="end_B_junction_1 junction_1_junction_6 junction_6_junction_3 junction_3_junction_4 junction_4_end_G"/>
    <route id="r_B_H" edges="end_B_junction_1 junction_1_junction_6 junction_6_junction_5 junction_5_end_H"/>
    <route id="r_B_I" edges="end_B_junction_1 junction_1_junction_6 junction_6_junction_5 junction_5_end_I"/>
    <route id="r_B_J" edges="end_B_junction_1 junction_1_junction_6 junction_6_end_J"/>
    <route id="r_C_A" edges="end_C_junction_2 junction_2_junction_1 junction_1_end_A"/>
    <route id="r_C_B" edges="end_C_junction_2 junction_2_junction_1 end_A_end_B"/>
    <route id="r_C_D" edges="end_C_junction_2 junction_2_end_D"/>
    <route id="r_C_E" edges="end_C_junction_2 junction_2_junction_3 junction_3_end_E"/>
    <route id="r_C_F" edges="end_C_junction_2 junction_2_junction_3 junction_3_junction_4 junction_4_end_F"/>
    <route id="r_C_G" edges="end_C_junction_2 junction_2_junction_3 junction_3_junction_4 junction_4_end_G"/>
    <route id="r_C_H" edges="end_C_junction_2 junction_2_junction_3 junction_3_junction_6 junction_6_junction_5 junction_5_end_H"/>
    <route id="r_C_I" edges="end_C_junction_2 junction_2_junction_3 junction_3_junction_6 junction_6_junction_5 junction_5_end_I"/>
    <route id="r_C_J" edges="end_C_junction_2 junction_2_junction_3 junction_3_junction_6 junction_6_end_J"/>
    <route id="r_D_A" edges="end_D_junction_2 junction_2_junction_1 junction_1_end_A"/>
    <route id="r_D_B" edges="end_D_junction_2 junction_2_junction_1 end_A_end_B"/>
    <route id="r_D_C" edges="end_D_junction_2 junction_2_end_C"/>
    <route id="r_D_E" edges="end_D_junction_2 junction_2_junction_3 junction_3_end_E"/>
    <route id="r_D_F" edges="end_D_junction_2 junction_2_junction_3 junction_3_junction_4 junction_4_end_F"/>
    <route id="r_D_G" edges="end_D_junction_2 junction_2_junction_3 junction_3_junction_4 junction_4_end_G"/>
    <route id="r_D_H" edges="end_D_junction_2 junction_2_junction_3 junction_3_junction_6 junction_6_junction_5 junction_5_end_H"/>
    <route id="r_D_I" edges="end_D_junction_2 junction_2_junction_3 junction_3_junction_6 junction_6_junction_5 junction_5_end_I"/>
    <route id="r_D_J" edges="end_D_junction_2 junction_2_junction_3 junction_3_junction_6 junction_6_end_J"/>
    <route id="r_E_A" edges="end_E_junction_3 junction_3_junction_6 junction_6_junction_1 junction_1_end_A"/>
    <route id="r_E_B" edges="end_E_junction_3 junction_3_junction_6 junction_6_junction_1 end_A_end_B"/>
    <route id="r_E_C" edges="end_E_junction_3 junction_3_junction_2 junction_2_end_C"/>
    <route id="r_E_D" edges="end_E_junction_3 junction_3_junction_2 junction_2_end_D"/>
    <route id="r_E_F" edges="end_E_junction_3 junction_3_junction_4 junction_4_end_F"/>
    <route id="r_E_G" edges="end_E_junction_3 junction_3_junction_4 junction_4_end_G"/>
    <route id="r_E_H" edges="end_E_junction_3 junction_3_junction_6 junction_6_junction_5 junction_5_end_H"/>
    <route id="r_E_I" edges="end_E_junction_3 junction_3_junction_6 junction_6_junction_5 junction_5_end_I"/>
    <route id="r_E_J" edges="end_E_junction_3 junction_3_junction_6 junction_6_end_J"/>
    <route id="r_F_A" edges="end_F_junction_4 junction_4_junction_3 junction_3_junction_6 junction_6_junction_1 junction_1_end_A"/>
    <route id="r_F_B" edges="end_F_junction_4 junction_4_junction_3 junction_3_junction_6 junction_6_junction_1 end_A_end_B"/>
    <route id="r_F_C" edges="end_F_junction_4 junction_4_junction_3 junction_3_junction_2 junction_2_end_C"/>
    <route id="r_F_D" edges="end_F_junction_4 junction_4_junction_3 junction_3_junction_2 junction_2_end_D"/>
    <route id="r_F_E" edges="end_F_junction_4 junction_4_junction_3 junction_3_end_E"/>
    <route id="r_F_G" edges="end_F_junction_4 junction_4_end_G"/>
    <route id="r_F_H" edges="end_F_junction_4 junction_4_junction_5 junction_5_end_H"/>
    <route id="r_F_I" edges="end_F_junction_4 junction_4_junction_5 junction_5_end_I"/>
    <route id="r_F_J" edges="end_F_junction_4 junction_4_junction_3 junction_3_junction_6 junction_6_end_J"/>
    <route id="r_G_A" edges="end_G_junction_4 junction_4_junction_3 junction_3_junction_6 junction_6_junction_1 junction_1_end_A"/>
    <route id="r_G_B" edges="end_G_junction_4 junction_4_junction_3 junction_3_junction_6 junction_6_junction_1 end_A_end_B"/>
    <route id="r_G_C" edges="end_G_junction_4 junction_4_junction_3 junction_3_junction_2 junction_2_end_C"/>
    <route id="r_G_D" edges="end_G_junction_4 junction_4_junction_3 junction_3_junction_2 junction_2_end_D"/>
    <route id="r_G_E" edges="end_G_junction_4 junction_4_junction_3 junction_3_end_E"/>
    <route id="r_G_F" edges="end_G_junction_4 junction_4_end_F"/>
    <route id="r_G_H" edges="end_G_junction_4 junction_4_junction_5 junction_5_end_H"/>
    <route id="r_G_I" edges="end_G_junction_4 junction_4_junction_5 junction_5_end_I"/>
    <route id="r_G_J" edges="end_G_junction_4 junction_4_junction_3 junction_3_junction_6 junction_6_end_J"/>
    <route id="r_H_A" edges="end_H_junction_5 junction_5_junction_6 junction_6_junction_1 junction_1_end_A"/>
    <route id="r_H_B" edges="end_H_junction_5 junction_5_junction_6 junction_6_junction_1 end_A_end_B"/>
    <route id="r_H_C" edges="end_H_junction_5 junction_5_junction_6 junction_6_junction_3 junction_3_junction_2 junction_2_end_C"/>
    <route id="r_H_D" edges="end_H_junction_5 junction_5_junction_6 junction_6_junction_3 junction_3_junction_2 junction_2_end_D"/>
    <route id="r_H_E" edges="end_H_junction_5 junction_5_junction_6 junction_6_junction_3 junction_3_end_E"/>
    <route id="r_H_F" edges="end_H_junction_5 junction_5_junction_4 junction_4_end_F"/>
    <route id="r_H_G" edges="end_H_junction_5 junction_5_junction_4 junction_4_end_G"/>
    <route id="r_H_I" edges="end_H_junction_5 junction_5_end_I"/>
    <route id="r_H_J" edges="end_H_junction_5 junction_5_junction_6 junction_6_end_J"/>
    <route id="r_I_A" edges="end_I_junction_5 junction_5_junction_6 junction_6_junction_1 junction_1_end_A"/>
    <route id="r_I_B" edges="end_I_junction_5 junction_5_junction_6 junction_6_junction_1 end_A_end_B"/>
    <route id="r_I_C" edges="end_I_junction_5 junction_5_junction_6 junction_6_junction_3 junction_3_junction_2 junction_2_end_C"/>
    <route id="r_I_D" edges="end_I_junction_5 junction_5_junction_6 junction_6_junction_3 junction_3_junction_2 junction_2_end_D"/>
    <route id="r_I_E" edges="end_I_junction_5 junction_5_junction_6 junction_6_junction_3 junction_3_end_E"/>
    <route id="r_I_F" edges="end_I_junction_5 junction_5_junction_4 junction_4_end_F"/>
    <route id="r_I_G" edges="end_I_junction_5 junction_5_junction_4 junction_4_end_G"/>
    <route id="r_I_H" edges="end_I_junction_5 junction_5_end_H"/>
    <route id="r_I_J" edges="end_I_junction_5 junction_5_junction_6 junction_6_end_J"/>
    <route id="r_J_A" edges="end_J_junction_6 junction_6_junction_1 junction_1_end_A"/>
    <route id="r_J_B" edges="end_J_junction_6 junction_6_junction_1 end_A_end_B"/>
    <route id="r_J_C" edges="end_J_junction_6 junction_6_junction_3 junction_3_junction_2 junction_2_end_C"/>
    <route id="r_J_D" edges="end_J_junction_6 junction_6_junction_3 junction_3_junction_2 junction_2_end_D"/>
    <route id="r_J_E" edges="end_J_junction_6 junction_6_junction_3 junction_3_end_E"/>
    <route id="r_J_F" edges="end_J_junction_6 junction_6_junction_3 junction_3_junction_4 junction_4_end_F"/>
    <route id="r_J_G" edges="end_J_junction_6 junction_6_junction_3 junction_3_junction_4 junction_4_end_G"/>
    <route id="r_J_H" edges="end_J_junction_6 junction_6_junction_5 junction_5_end_H"/>
    <route id="r_J_I" edges="end_J_junction_6 junction_6_junction_5 junction_5_end_I"/>


    <!-- Vehicles, persons and containers (sorted by depart) -->
    <flow id="f_1" type="cautious" begin="0.00" route="r_J_E" end="600.00" probability="0.45"/>
    <flow id="f_2" type="cautious" begin="0.00" route="r_E_J" end="650.00" probability="0.15"/>

    <flow id="f_3" type="cautious" begin="0.00" route="r_A_B" end="650.00" probability="0.03"/>
    <flow id="f_4" type="cautious" begin="0.00" route="r_A_C" end="650.00" probability="0.03"/>
    <flow id="f_5" type="cautious" begin="0.00" route="r_A_D" end="650.00" probability="0.03"/>
    <flow id="f_6" type="cautious" begin="0.00" route="r_A_E" end="650.00" probability="0.045"/>
    <flow id="f_7" type="cautious" begin="0.00" route="r_A_F" end="650.00" probability="0.03"/>
    <flow id="f_8" type="cautious" begin="0.00" route="r_A_G" end="650.00" probability="0.03"/>
    <flow id="f_9" type="cautious" begin="0.00" route="r_A_H" end="650.00" probability="0.03"/>
    <flow id="f_10" type="cautious" begin="0.00" route="r_A_I" end="650.00" probability="0.03"/>
    <flow id="f_11" type="cautious" begin="0.00" route="r_A_J" end="650.00" probability="0.03"/>

    <flow id="f_12" type="cautious" begin="0.00" route="r_B_A" end="650.00" probability="0.03"/>
    <flow id="f_13" type="cautious" begin="0.00" route="r_B_C" end="650.00" probability="0.03"/>
    <flow id="f_14" type="cautious" begin="0.00" route="r_B_D" end="650.00" probability="0.03"/>
    <flow id="f_15" type="cautious" begin="0.00" route="r_B_E" end="650.00" probability="0.045"/>
    <flow id="f_16" type="cautious" begin="0.00" route="r_B_F" end="650.00" probability="0.03"/>
    <flow id="f_17" type="cautious" begin="0.00" route="r_B_G" end="650.00" probability="0.03"/>
    <flow id="f_18" type="cautious" begin="0.00" route="r_B_H" end="650.00" probability="0.03"/>
    <flow id="f_19" type="cautious" begin="0.00" route="r_B_I" end="650.00" probability="0.03"/>
    <flow id="f_20" type="cautious" begin="0.00" route="r_B_J" end="650.00" probability="0.03"/>

    <flow id="f_21" type="cautious" begin="0.00" route="r_C_A" end="650.00" probability="0.03"/>
    <flow id="f_22" type="cautious" begin="0.00" route="r_C_B" end="650.00" probability="0.03"/>
    <flow id="f_23" type="cautious" begin="0.00" route="r_C_D" end="650.00" probability="0.03"/>
    <flow id="f_24" type="cautious" begin="0.00" route="r_C_E" end="650.00" probability="0.045"/>
    <flow id="f_25" type="cautious" begin="0.00" route="r_C_F" end="650.00" probability="0.03"/>
    <flow id="f_26" type="cautious" begin="0.00" route="r_C_G" end="650.00" probability="0.03"/>
    <flow id="f_27" type="cautious" begin="0.00" route="r_C_H" end="650.00" probability="0.03"/>
    <flow id="f_28" type="cautious" begin="0.00" route="r_C_I" end="650.00" probability="0.03"/>
    <flow id="f_29" type="cautious" begin="0.00" route="r_C_J" end="650.00" probability="0.03"/>

    <flow id="f_30" type="cautious" begin="0.00" route="r_D_A" end="650.00" probability="0.03"/>
    <flow id="f_31" type="cautious" begin="0.00" route="r_D_B" end="650.00" probability="0.03"/>
    <flow id="f_32" type="cautious" begin="0.00" route="r_D_C" end="650.00" probability="0.03"/>
    <flow id="f_33" type="cautious" begin="0.00" route="r_D_E" end="650.00" probability="0.045"/>
    <flow id="f_34" type="cautious" begin="0.00" route="r_D_F" end="650.00" probability="0.03"/>
    <flow id="f_35" type="cautious" begin="0.00" route="r_D_G" end="650.00" probability="0.03"/>
    <flow id="f_36" type="cautious" begin="0.00" route="r_D_H" end="650.00" probability="0.03"/>
    <flow id="f_37" type="cautious" begin="0.00" route="r_D_I" end="650.00" probability="0.03"/>
    <flow id="f_38" type="cautious" begin="0.00" route="r_D_J" end="650.00" probability="0.03"/>

    <flow id="f_39" type="cautious" begin="0.00" route="r_E_A" end="650.00" probability="0.03"/>
    <flow id="f_40" type="cautious" begin="0.00" route="r_E_B" end="650.00" probability="0.03"/>
    <flow id="f_41" type="cautious" begin="0.00" route="r_E_C" end="650.00" probability="0.03"/>
    <flow id="f_42" type="cautious" begin="0.00" route="r_E_D" end="650.00" probability="0.03"/>
    <flow id="f_43" type="cautious" begin="0.00" route="r_E_F" end="650.00" probability="0.03"/>
    <flow id="f_44" type="cautious" begin="0.00" route="r_E_G" end="650.00" probability="0.03"/>
    <flow id="f_45" type="cautious" begin="0.00" route="r_E_H" end="650.00" probability="0.03"/>
    <flow id="f_46" type="cautious" begin="0.00" route="r_E_I" end="650.00" probability="0.03"/>

    <flow id="f_47" type="cautious" begin="0.00" route="r_F_A" end="650.00" probability="0.03"/>
    <flow id="f_48" type="cautious" begin="0.00" route="r_F_B" end="650.00" probability="0.03"/>
    <flow id="f_49" type="cautious" begin="0.00" route="r_F_C" end="650.00" probability="0.03"/>
    <flow id="f_50" type="cautious" begin="0.00" route="r_F_D" end="650.00" probability="0.03"/>
    <flow id="f_51" type="cautious" begin="0.00" route="r_F_E" end="650.00" probability="0.045"/>
    <flow id="f_52" type="cautious" begin="0.00" route="r_F_G" end="650.00" probability="0.03"/>
    <flow id="f_53" type="cautious" begin="0.00" route="r_F_H" end="650.00" probability="0.03"/>
    <flow id="f_54" type="cautious" begin="0.00" route="r_F_I" end="650.00" probability="0.03"/>
    <flow id="f_55" type="cautious" begin="0.00" route="r_F_J" end="650.00" probability="0.03"/>

    <flow id="f_56" type="cautious" begin="0.00" route="r_G_A" end="650.00" probability="0.03"/>
    <flow id="f_57" type="cautious" begin="0.00" route="r_G_B" end="650.00" probability="0.03"/>
    <flow id="f_58" type="cautious" begin="0.00" route="r_G_C" end="650.00" probability="0.03"/>
    <flow id="f_59" type="cautious" begin="0.00" route="r_G_D" end="650.00" probability="0.03"/>
    <flow id="f_60" type="cautious" begin="0.00" route="r_G_E" end="650.00" probability="0.045"/>
    <flow id="f_61" type="cautious" begin="0.00" route="r_G_F" end="650.00" probability="0.03"/>
    <flow id="f_62" type="cautious" begin="0.00" route="r_G_H" end="650.00" probability="0.03"/>
    <flow id="f_63" type="cautious" begin="0.00" route="r_G_I" end="650.00" probability="0.03"/>
    <flow id="f_64" type="cautious" begin="0.00" route="r_G_J" end="650.00" probability="0.03"/>

    <flow id="f_65" type="cautious" begin="0.00" route="r_H_A" end="650.00" probability="0.03"/>
    <flow id="f_66" type="cautious" begin="0.00" route="r_H_B" end="650.00" probability="0.03"/>
    <flow id="f_67" type="cautious" begin="0.00" route="r_H_C" end="650.00" probability="0.03"/>
    <flow id="f_68" type="cautious" begin="0.00" route="r_H_D" end="650.00" probability="0.03"/>
    <flow id="f_69" type="cautious" begin="0.00" route="r_H_E" end="650.00" probability="0.045"/>
    <flow id="f_70" type="cautious" begin="0.00" route="r_H_F" end="650.00" probability="0.03"/>
    <flow id="f_71" type="cautious" begin="0.00" route="r_H_G" end="650.00" probability="0.03"/>
    <flow id="f_72" type="cautious" begin="0.00" route="r_H_I" end="650.00" probability="0.03"/>
    <flow id="f_73" type="cautious" begin="0.00" route="r_H_J" end="650.00" probability="0.03"/>

    <flow id="f_74" type="cautious" begin="0.00" route="r_I_A" end="650.00" probability="0.03"/>
    <flow id="f_75" type="cautious" begin="0.00" route="r_I_B" end="650.00" probability="0.03"/>
    <flow id="f_76" type="cautious" begin="0.00" route="r_I_C" end="650.00" probability="0.03"/>
    <flow id="f_77" type="cautious" begin="0.00" route="r_I_D" end="650.00" probability="0.03"/>
    <flow id="f_78" type="cautious" begin="0.00" route="r_I_E" end="650.00" probability="0.045"/>
    <flow id="f_79" type="cautious" begin="0.00" route="r_I_F" end="650.00" probability="0.03"/>
    <flow id="f_80" type="cautious" begin="0.00" route="r_I_G" end="650.00" probability="0.03"/>
    <flow id="f_81" type="cautious" begin="0.00" route="r_I_H" end="650.00" probability="0.03"/>
    <flow id="f_82" type="cautious" begin="0.00" route="r_I_J" end="650.00" probability="0.03"/>

    <flow id="f_83" type="cautious" begin="0.00" route="r_J_A" end="650.00" probability="0.03"/>
    <flow id="f_84" type="cautious" begin="0.00" route="r_J_B" end="650.00" probability="0.03"/>
    <flow id="f_85" type="cautious" begin="0.00" route="r_J_C" end="650.00" probability="0.03"/>
    <flow id="f_86" type="cautious" begin="0.00" route="r_J_D" end="650.00" probability="0.03"/>
    <flow id="f_88" type="cautious" begin="0.00" route="r_J_F" end="650.00" probability="0.03"/>
    <flow id="f_89" type="cautious" begin="0.00" route="r_J_G" end="650.00" probability="0.03"/>
    <flow id="f_90" type="cautious" begin="0.00" route="r_J_H" end="650.00" probability="0.03"/>
    <flow id="f_91" type="cautious" begin="0.00" route="r_J_I" end="650.00" probability="0.03"/>








    <flow id="f_1_A" type="aggressive" begin="0.00" route="r_J_E" end="650.00" probability="0.15"/>
    <flow id="f_2_A" type="aggressive" begin="0.00" route="r_E_J" end="650.00" probability="0.05"/>

    <flow id="f_3_A" type="aggressive" begin="0.00" route="r_A_B" end="650.00" probability="0.01"/>
    <flow id="f_4_A" type="aggressive" begin="0.00" route="r_A_C" end="650.00" probability="0.01"/>
    <flow id="f_5_A" type="aggressive" begin="0.00" route="r_A_D" end="650.00" probability="0.01"/>
    <flow id="f_6_A" type="aggressive" begin="0.00" route="r_A_E" end="650.00" probability="0.015"/>
    <flow id="f_7_A" type="aggressive" begin="0.00" route="r_A_F" end="650.00" probability="0.01"/>
    <flow id="f_8_A" type="aggressive" begin="0.00" route="r_A_G" end="650.00" probability="0.01"/>
    <flow id="f_9_A" type="aggressive" begin="0.00" route="r_A_H" end="650.00" probability="0.01"/>
    <flow id="f_10_A" type="aggressive" begin="0.00" route="r_A_I" end="650.00" probability="0.01"/>
    <flow id="f_11_A" type="aggressive" begin="0.00" route="r_A_J" end="650.00" probability="0.01"/>

    <flow id="f_12_A" type="aggressive" begin="0.00" route="r_B_A" end="650.00" probability="0.01"/>
    <flow id="f_13_A" type="aggressive" begin="0.00" route="r_B_C" end="650.00" probability="0.01"/>
    <flow id="f_14_A" type="aggressive" begin="0.00" route="r_B_D" end="650.00" probability="0.01"/>
    <flow id="f_15_A" type="aggressive" begin="0.00" route="r_B_E" end="650.00" probability="0.015"/>
    <flow id="f_16_A" type="aggressive" begin="0.00" route="r_B_F" end="650.00" probability="0.01"/>
    <flow id="f_17_A" type="aggressive" begin="0.00" route="r_B_G" end="650.00" probability="0.01"/>
    <flow id="f_18_A" type="aggressive" begin="0.00" route="r_B_H" end="650.00" probability="0.01"/>
    <flow id="f_19_A" type="aggressive" begin="0.00" route="r_B_I" end="650.00" probability="0.01"/>
    <flow id="f_20_A" type="aggressive" begin="0.00" route="r_B_J" end="650.00" probability="0.01"/>

    <flow id="f_21_A" type="aggressive" begin="0.00" route="r_C_A" end="650.00" probability="0.01"/>
    <flow id="f_22_A" type="aggressive" begin="0.00" route="r_C_B" end="650.00" probability="0.01"/>
    <flow id="f_23_A" type="aggressive" begin="0.00" route="r_C_D" end="650.00" probability="0.01"/>
    <flow id="f_24_A" type="aggressive" begin="0.00" route="r_C_E" end="650.00" probability="0.015"/>
    <flow id="f_25_A" type="aggressive" begin="0.00" route="r_C_F" end="650.00" probability="0.01"/>
    <flow id="f_26_A" type="aggressive" begin="0.00" route="r_C_G" end="650.00" probability="0.01"/>
    <flow id="f_27_A" type="aggressive" begin="0.00" route="r_C_H" end="650.00" probability="0.01"/>
    <flow id="f_28_A" type="aggressive" begin="0.00" route="r_C_I" end="650.00" probability="0.01"/>
    <flow id="f_29_A" type="aggressive" begin="0.00" route="r_C_J" end="650.00" probability="0.01"/>

    <flow id="f_30_A" type="aggressive" begin="0.00" route="r_D_A" end="650.00" probability="0.01"/>
    <flow id="f_31_A" type="aggressive" begin="0.00" route="r_D_B" end="650.00" probability="0.01"/>
    <flow id="f_32_A" type="aggressive" begin="0.00" route="r_D_C" end="650.00" probability="0.01"/>
    <flow id="f_33_A" type="aggressive" begin="0.00" route="r_D_E" end="650.00" probability="0.015"/>
    <flow id="f_34_A" type="aggressive" begin="0.00" route="r_D_F" end="650.00" probability="0.01"/>
    <flow id="f_35_A" type="aggressive" begin="0.00" route="r_D_G" end="650.00" probability="0.01"/>
    <flow id="f_36_A" type="aggressive" begin="0.00" route="r_D_H" end="650.00" probability="0.01"/>
    <flow id="f_37_A" type="aggressive" begin="0.00" route="r_D_I" end="650.00" probability="0.01"/>
    <flow id="f_38_A" type="aggressive" begin="0.00" route="r_D_J" end="650.00" probability="0.01"/>

    <flow id="f_39_A" type="aggressive" begin="0.00" route="r_E_A" end="650.00" probability="0.01"/>
    <flow id="f_40_A" type="aggressive" begin="0.00" route="r_E_B" end="650.00" probability="0.01"/>
    <flow id="f_41_A" type="aggressive" begin="0.00" route="r_E_C" end="650.00" probability="0.01"/>
    <flow id="f_42_A" type="aggressive" begin="0.00" route="r_E_D" end="650.00" probability="0.01"/>
    <flow id="f_43_A" type="aggressive" begin="0.00" route="r_E_F" end="650.00" probability="0.01"/>
    <flow id="f_44_A" type="aggressive" begin="0.00" route="r_E_G" end="650.00" probability="0.01"/>
    <flow id="f_45_A" type="aggressive" begin="0.00" route="r_E_H" end="650.00" probability="0.01"/>
    <flow id="f_46_A" type="aggressive" begin="0.00" route="r_E_I" end="650.00" probability="0.01"/>

    <flow id="f_47_A" type="aggressive" begin="0.00" route="r_F_A" end="650.00" probability="0.01"/>
    <flow id="f_48_A" type="aggressive" begin="0.00" route="r_F_B" end="650.00" probability="0.01"/>
    <flow id="f_49_A" type="aggressive" begin="0.00" route="r_F_C" end="650.00" probability="0.01"/>
    <flow id="f_50_A" type="aggressive" begin="0.00" route="r_F_D" end="650.00" probability="0.01"/>
    <flow id="f_51_A" type="aggressive" begin="0.00" route="r_F_E" end="650.00" probability="0.015"/>
    <flow id="f_52_A" type="aggressive" begin="0.00" route="r_F_G" end="650.00" probability="0.01"/>
    <flow id="f_53_A" type="aggressive" begin="0.00" route="r_F_H" end="650.00" probability="0.01"/>
    <flow id="f_54_A" type="aggressive" begin="0.00" route="r_F_I" end="650.00" probability="0.01"/>
    <flow id="f_55_A" type="aggressive" begin="0.00" route="r_F_J" end="650.00" probability="0.01"/>

    <flow id="f_56_A" type="aggressive" begin="0.00" route="r_G_A" end="650.00" probability="0.01"/>
    <flow id="f_57_A" type="aggressive" begin="0.00" route="r_G_B" end="650.00" probability="0.01"/>
    <flow id="f_58_A" type="aggressive" begin="0.00" route="r_G_C" end="650.00" probability="0.01"/>
    <flow id="f_59_A" type="aggressive" begin="0.00" route="r_G_D" end="650.00" probability="0.01"/>
    <flow id="f_60_A" type="aggressive" begin="0.00" route="r_G_E" end="650.00" probability="0.015"/>
    <flow id="f_61_A" type="aggressive" begin="0.00" route="r_G_F" end="650.00" probability="0.01"/>
    <flow id="f_62_A" type="aggressive" begin="0.00" route="r_G_H" end="650.00" probability="0.01"/>
    <flow id="f_63_A" type="aggressive" begin="0.00" route="r_G_I" end="650.00" probability="0.01"/>
    <flow id="f_64_A" type="aggressive" begin="0.00" route="r_G_J" end="650.00" probability="0.01"/>

    <flow id="f_65_A" type="aggressive" begin="0.00" route="r_H_A" end="650.00" probability="0.01"/>
    <flow id="f_66_A" type="aggressive" begin="0.00" route="r_H_B" end="650.00" probability="0.01"/>
    <flow id="f_67_A" type="aggressive" begin="0.00" route="r_H_C" end="650.00" probability="0.01"/>
    <flow id="f_68_A" type="aggressive" begin="0.00" route="r_H_D" end="650.00" probability="0.01"/>
    <flow id="f_69_A" type="aggressive" begin="0.00" route="r_H_E" end="650.00" probability="0.015"/>
    <flow id="f_70_A" type="aggressive" begin="0.00" route="r_H_F" end="650.00" probability="0.01"/>
    <flow id="f_71_A" type="aggressive" begin="0.00" route="r_H_G" end="650.00" probability="0.01"/>
    <flow id="f_72_A" type="aggressive" begin="0.00" route="r_H_I" end="650.00" probability="0.01"/>
    <flow id="f_73_A" type="aggressive" begin="0.00" route="r_H_J" end="650.00" probability="0.01"/>

    <flow id="f_74_A" type="aggressive" begin="0.00" route="r_I_A" end="650.00" probability="0.01"/>
    <flow id="f_75_A" type="aggressive" begin="0.00" route="r_I_B" end="650.00" probability="0.01"/>
    <flow id="f_76_A" type="aggressive" begin="0.00" route="r_I_C" end="650.00" probability="0.01"/>
    <flow id="f_77_A" type="aggressive" begin="0.00" route="r_I_D" end="650.00" probability="0.01"/>
    <flow id="f_78_A" type="aggressive" begin="0.00" route="r_I_E" end="650.00" probability="0.015"/>
    <flow id="f_79_A" type="aggressive" begin="0.00" route="r_I_F" end="650.00" probability="0.01"/>
    <flow id="f_80_A" type="aggressive" begin="0.00" route="r_I_G" end="650.00" probability="0.01"/>
    <flow id="f_81_A" type="aggressive" begin="0.00" route="r_I_H" end="650.00" probability="0.01"/>
    <flow id="f_82_A" type="aggressive" begin="0.00" route="r_I_J" end="650.00" probability="0.01"/>

    <flow id="f_83_A" type="aggressive" begin="0.00" route="r_J_A" end="650.00" probability="0.01"/>
    <flow id="f_84_A" type="aggressive" begin="0.00" route="r_J_B" end="650.00" probability="0.01"/>
    <flow id="f_85_A" type="aggressive" begin="0.00" route="r_J_C" end="650.00" probability="0.01"/>
    <flow id="f_86_A" type="aggressive" begin="0.00" route="r_J_D" end="650.00" probability="0.01"/>
    <flow id="f_88_A" type="aggressive" begin="0.00" route="r_J_F" end="650.00" probability="0.01"/>
    <flow id="f_89_A" type="aggressive" begin="0.00" route="r_J_G" end="650.00" probability="0.01"/>
    <flow id="f_90_A" type="aggressive" begin="0.00" route="r_J_H" end="650.00" probability="0.01"/>
    <flow id="f_91_A" type="aggressive" begin="0.00" route="r_J_I" end="650.00" probability="0.01"/>











    <flow id="f_1_M" type="motorcycle" begin="0.00" route="r_J_E" end="650.00" probability="0.30"/>
    <flow id="f_2_M" type="motorcycle" begin="0.00" route="r_E_J" end="650.00" probability="0.20"/>

    <flow id="f_3_M" type="motorcycle" begin="0.00" route="r_A_B" end="650.00" probability="0.025"/>
    <flow id="f_4_M" type="motorcycle" begin="0.00" route="r_A_C" end="650.00" probability="0.025"/>
    <flow id="f_5_M" type="motorcycle" begin="0.00" route="r_A_D" end="650.00" probability="0.025"/>
    <flow id="f_6_M" type="motorcycle" begin="0.00" route="r_A_E" end="650.00" probability="0.035"/>
    <flow id="f_7_M" type="motorcycle" begin="0.00" route="r_A_F" end="650.00" probability="0.025"/>
    <flow id="f_8_M" type="motorcycle" begin="0.00" route="r_A_G" end="650.00" probability="0.025"/>
    <flow id="f_9_M" type="motorcycle" begin="0.00" route="r_A_H" end="650.00" probability="0.025"/>
    <flow id="f_10_M" type="motorcycle" begin="0.00" route="r_A_I" end="650.00" probability="0.025"/>
    <flow id="f_11_M" type="motorcycle" begin="0.00" route="r_A_J" end="650.00" probability="0.025"/>

    <flow id="f_12_M" type="motorcycle" begin="0.00" route="r_B_A" end="650.00" probability="0.025"/>
    <flow id="f_13_M" type="motorcycle" begin="0.00" route="r_B_C" end="650.00" probability="0.025"/>
    <flow id="f_14_M" type="motorcycle" begin="0.00" route="r_B_D" end="650.00" probability="0.025"/>
    <flow id="f_15_M" type="motorcycle" begin="0.00" route="r_B_E" end="650.00" probability="0.035"/>
    <flow id="f_16_M" type="motorcycle" begin="0.00" route="r_B_F" end="650.00" probability="0.025"/>
    <flow id="f_17_M" type="motorcycle" begin="0.00" route="r_B_G" end="650.00" probability="0.025"/>
    <flow id="f_18_M" type="motorcycle" begin="0.00" route="r_B_H" end="650.00" probability="0.025"/>
    <flow id="f_19_M" type="motorcycle" begin="0.00" route="r_B_I" end="650.00" probability="0.025"/>