<?xml version="1.0" encoding="UTF-8"?>

<!-- generated on 2025-03-17 10:55:45 by Eclipse SUMO netedit Version 1.22.0
<neteditConfiguration xmlns:xsi="http://www.w3.org/2001/XMLSchema-instance" xsi:noNamespaceSchemaLocation="http://sumo.dlr.de/xsd/neteditConfiguration.xsd">

    <input>
        <sumocfg-file value="/Users/pr/code/psels/RL_traffic/city_traffic_long/city.sumocfg"/>
        <additional-files value=""/>
        <route-files value="/Users/pr/code/psels/RL_traffic/city_traffic_long/city_veh_various_no_commut.rou.xml"/>
        <sumo-net-file value="/Users/pr/code/psels/RL_traffic/city_traffic_long/city_net_5_pahse.net.xml"/>
    </input>

    <output>
        <tls-file value="/Users/pr/code/psels/RL_traffic/city_traffic_long/city_5_phase.tll.xml"/>
        <output-file value="/Users/pr/code/psels/RL_traffic/city_traffic_long/city_net_5_pahse.net.xml"/>
    </output>

    <processing>
        <geometry.min-radius.fix.railways value="false"/>
        <geometry.max-grade.fix value="false"/>
        <offset.disable-normalization value="true"/>
        <lefthand value="0"/>
    </processing>

    <junctions>
        <no-turnarounds value="true"/>
        <junctions.corner-detail value="5"/>
        <junctions.limit-turn-speed value="5.50"/>
        <rectangular-lane-cut value="0"/>
    </junctions>

    <pedestrian>
        <walkingareas value="0"/>
    </pedestrian>

</neteditConfiguration>
-->

<net version="1.20" junctionCornerDetail="5" limitTurnSpeed="5.50" xmlns:xsi="http://www.w3.org/2001/XMLSchema-instance" xsi:noNamespaceSchemaLocation="http://sumo.dlr.de/xsd/net_file.xsd">

    <location netOffset="0.00,0.00" convBoundary="-300.00,-700.00,1300.00,900.00" origBoundary="-10000000000.00,-10000000000.00,10000000000.00,10000000000.00" projParameter="!"/>

    <edge id=":junction_1_0" function="internal">
        <lane id=":junction_1_0_0" index="0" speed="6.51" length="9.03" shape="-4.80,610.40 -5.15,607.95 -6.20,606.20 -7.95,605.15 -10.40,604.80"/>
    </edge>
    <edge id=":junction_1_1" function="internal">
        <lane id=":junction_1_1_0" index="0" speed="50.00" length="20.80" shape="-4.80,610.40 -4.80,589.60"/>
        <lane id=":junction_1_1_1" index="1" speed="50.00" length="20.80" shape="-1.60,610.40 -1.60,589.60"/>
    </edge>
    <edge id=":junction_1_3" function="internal">
        <lane id=":junction_1_3_0" index="0" speed="9.26" length="5.01" shape="-1.60,610.40 -0.89,605.44"/>
    </edge>
    <edge id=":junction_1_16" function="internal">
        <lane id=":junction_1_16_0" index="0" speed="9.26" length="14.34" shape="-0.89,605.44 -0.85,605.15 1.40,601.40 5.15,599.15 10.40,598.40"/>
    </edge>
    <edge id=":junction_1_4" function="internal">
        <lane id=":junction_1_4_0" index="0" speed="6.51" length="9.03" shape="10.40,604.80 7.95,605.15 6.20,606.20 5.15,607.95 4.80,610.40"/>
    </edge>
    <edge id=":junction_1_5" function="internal">
        <lane id=":junction_1_5_0" index="0" speed="50.00" length="20.80" shape="10.40,604.80 -10.40,604.80"/>
        <lane id=":junction_1_5_1" index="1" speed="50.00" length="20.80" shape="10.40,601.60 -10.40,601.60"/>
    </edge>
    <edge id=":junction_1_7" function="internal">
        <lane id=":junction_1_7_0" index="0" speed="9.26" length="5.01" shape="10.40,601.60 5.44,600.89"/>
    </edge>
    <edge id=":junction_1_17" function="internal">
        <lane id=":junction_1_17_0" index="0" speed="9.26" length="14.34" shape="5.44,600.89 5.15,600.85 1.40,598.60 -0.85,594.85 -1.60,589.60"/>
    </edge>
    <edge id=":junction_1_8" function="internal">
        <lane id=":junction_1_8_0" index="0" speed="6.51" length="9.03" shape="4.80,589.60 5.15,592.05 6.20,593.80 7.95,594.85 10.40,595.20"/>
    </edge>
    <edge id=":junction_1_9" function="internal">
        <lane id=":junction_1_9_0" index="0" speed="50.00" length="20.80" shape="4.80,589.60 4.80,610.40"/>
        <lane id=":junction_1_9_1" index="1" speed="50.00" length="20.80" shape="1.60,589.60 1.60,610.40"/>
    </edge>
    <edge id=":junction_1_11" function="internal">
        <lane id=":junction_1_11_0" index="0" speed="9.26" length="5.01" shape="1.60,589.60 0.89,594.56"/>
    </edge>
    <edge id=":junction_1_18" function="internal">
        <lane id=":junction_1_18_0" index="0" speed="9.26" length="14.34" shape="0.89,594.56 0.85,594.85 -1.40,598.60 -5.15,600.85 -10.40,601.60"/>
    </edge>
    <edge id=":junction_1_12" function="internal">
        <lane id=":junction_1_12_0" index="0" speed="6.51" length="9.03" shape="-10.40,595.20 -7.95,594.85 -6.20,593.80 -5.15,592.05 -4.80,589.60"/>
    </edge>
    <edge id=":junction_1_13" function="internal">
        <lane id=":junction_1_13_0" index="0" speed="50.00" length="20.80" shape="-10.40,595.20 10.40,595.20"/>
        <lane id=":junction_1_13_1" index="1" speed="50.00" length="20.80" shape="-10.40,598.40 10.40,598.40"/>
    </edge>
    <edge id=":junction_1_15" function="internal">
        <lane id=":junction_1_15_0" index="0" speed="9.26" length="5.01" shape="-10.40,598.40 -5.44,599.11"/>
    </edge>
    <edge id=":junction_1_19" function="internal">
        <lane id=":junction_1_19_0" index="0" speed="9.26" length="14.34" shape="-5.44,599.11 -5.15,599.15 -1.40,601.40 0.85,605.15 1.60,610.40"/>
    </edge>
    <edge id=":junction_2_0" function="internal">
        <lane id=":junction_2_0_0" index="0" speed="6.51" length="9.03" shape="995.20,610.40 994.85,607.95 993.80,606.20 992.05,605.15 989.60,604.80"/>
    </edge>
    <edge id=":junction_2_1" function="internal">
        <lane id=":junction_2_1_0" index="0" speed="50.00" length="20.80" shape="995.20,610.40 995.20,589.60"/>
        <lane id=":junction_2_1_1" index="1" speed="50.00" length="20.80" shape="998.40,610.40 998.40,589.60"/>
    </edge>
    <edge id=":junction_2_3" function="internal">
        <lane id=":junction_2_3_0" index="0" speed="9.26" length="5.01" shape="998.40,610.40 999.11,605.44"/>
    </edge>
    <edge id=":junction_2_16" function="internal">
        <lane id=":junction_2_16_0" index="0" speed="9.26" length="14.34" shape="999.11,605.44 999.15,605.15 1001.40,601.40 1005.15,599.15 1010.40,598.40"/>
    </edge>
    <edge id=":junction_2_4" function="internal">
        <lane id=":junction_2_4_0" index="0" speed="6.51" length="9.03" shape="1010.40,604.80 1007.95,605.15 1006.20,606.20 1005.15,607.95 1004.80,610.40"/>
    </edge>
    <edge id=":junction_2_5" function="internal">
        <lane id=":junction_2_5_0" index="0" speed="50.00" length="20.80" shape="1010.40,604.80 989.60,604.80"/>
        <lane id=":junction_2_5_1" index="1" speed="50.00" length="20.80" shape="1010.40,601.60 989.60,601.60"/>
    </edge>
    <edge id=":junction_2_7" function="internal">
        <lane id=":junction_2_7_0" index="0" speed="9.26" length="5.01" shape="1010.40,601.60 1005.44,600.89"/>
    </edge>
    <edge id=":junction_2_17" function="internal">
        <lane id=":junction_2_17_0" index="0" speed="9.26" length="14.34" shape="1005.44,600.89 1005.15,600.85 1001.40,598.60 999.15,594.85 998.40,589.60"/>
    </edge>
    <edge id=":junction_2_8" function="internal">
        <lane id=":junction_2_8_0" index="0" speed="6.51" length="9.03" shape="1004.80,589.60 1005.15,592.05 1006.20,593.80 1007.95,594.85 1010.40,595.20"/>
    </edge>
    <edge id=":junction_2_9" function="internal">
        <lane id=":junction_2_9_0" index="0" speed="50.00" length="20.80" shape="1004.80,589.60 1004.80,610.40"/>
        <lane id=":junction_2_9_1" index="1" speed="50.00" length="20.80" shape="1001.60,589.60 1001.60,610.40"/>
    </edge>
    <edge id=":junction_2_11" function="internal">
        <lane id=":junction_2_11_0" index="0" speed="9.26" length="5.01" shape="1001.60,589.60 1000.89,594.56"/>
    </edge>
    <edge id=":junction_2_18" function="internal">
        <lane id=":junction_2_18_0" index="0" speed="9.26" length="14.34" shape="1000.89,594.56 1000.85,594.85 998.60,598.60 994.85,600.85 989.60,601.60"/>
    </edge>
    <edge id=":junction_2_12" function="internal">
        <lane id=":junction_2_12_0" index="0" speed="6.51" length="9.03" shape="989.60,595.20 992.05,594.85 993.80,593.80 994.85,592.05 995.20,589.60"/>
    </edge>
    <edge id=":junction_2_13" function="internal">
        <lane id=":junction_2_13_0" index="0" speed="50.00" length="20.80" shape="989.60,595.20 1010.40,595.20"/>
        <lane id=":junction_2_13_1" index="1" speed="50.00" length="20.80" shape="989.60,598.40 1010.40,598.40"/>
    </edge>
    <edge id=":junction_2_15" function="internal">
        <lane id=":junction_2_15_0" index="0" speed="9.26" length="5.01" shape="989.60,598.40 994.56,599.11"/>
    </edge>
    <edge id=":junction_2_19" function="internal">
        <lane id=":junction_2_19_0" index="0" speed="9.26" length="14.34" shape="994.56,599.11 994.85,599.15 998.60,601.40 1000.85,605.15 1001.60,610.40"/>
    </edge>
    <edge id=":junction_3_0" function="internal">
        <lane id=":junction_3_0_0" index="0" speed="6.51" length="9.03" shape="995.20,113.60 994.85,111.15 993.80,109.40 992.05,108.35 989.60,108.00"/>
    </edge>
    <edge id=":junction_3_1" function="internal">
        <lane id=":junction_3_1_0" index="0" speed="50.00" length="27.20" shape="995.20,113.60 995.20,86.40"/>
        <lane id=":junction_3_1_1" index="1" speed="50.00" length="27.20" shape="998.40,113.60 998.40,86.40"/>
    </edge>
    <edge id=":junction_3_3" function="internal">
        <lane id=":junction_3_3_0" index="0" speed="9.84" length="6.30" shape="998.40,113.60 999.11,107.34"/>
    </edge>
    <edge id=":junction_3_18" function="internal">
        <lane id=":junction_3_18_0" index="0" speed="9.84" length="15.70" shape="999.11,107.34 999.15,106.95 1001.40,102.20 1005.15,99.35 1010.40,98.40"/>
    </edge>
    <edge id=":junction_3_4" function="internal">
        <lane id=":junction_3_4_0" index="0" speed="6.51" length="9.03" shape="1010.40,108.00 1007.95,108.35 1006.20,109.40 1005.15,111.15 1004.80,113.60"/>
    </edge>
    <edge id=":junction_3_5" function="internal">
        <lane id=":junction_3_5_0" index="0" speed="90.00" length="20.80" shape="1010.40,108.00 989.60,108.00"/>
        <lane id=":junction_3_5_1" index="1" speed="90.00" length="20.80" shape="1010.40,104.80 989.60,104.80"/>
        <lane id=":junction_3_5_2" index="2" speed="90.00" length="20.80" shape="1010.40,101.60 989.60,101.60"/>
    </edge>
    <edge id=":junction_3_8" function="internal">
        <lane id=":junction_3_8_0" index="0" speed="9.84" length="4.01" shape="1010.40,101.60 1006.45,100.89"/>
    </edge>
    <edge id=":junction_3_19" function="internal">
        <lane id=":junction_3_19_0" index="0" speed="9.84" length="17.98" shape="1006.45,100.89 1005.15,100.65 1001.40,97.80 999.15,93.05 998.40,86.40"/>
    </edge>
    <edge id=":junction_3_9" function="internal">
        <lane id=":junction_3_9_0" index="0" speed="6.51" length="9.03" shape="1004.80,86.40 1005.15,88.85 1006.20,90.60 1007.95,91.65 1010.40,92.00"/>
    </edge>
    <edge id=":junction_3_10" function="internal">
        <lane id=":junction_3_10_0" index="0" speed="50.00" length="27.20" shape="1004.80,86.40 1004.80,113.60"/>
        <lane id=":junction_3_10_1" index="1" speed="50.00" length="27.20" shape="1001.60,86.40 1001.60,113.60"/>
    </edge>
    <edge id=":junction_3_12" function="internal">
        <lane id=":junction_3_12_0" index="0" speed="9.84" length="6.30" shape="1001.60,86.40 1000.89,92.66"/>
    </edge>
    <edge id=":junction_3_20" function="internal">
        <lane id=":junction_3_20_0" index="0" speed="9.84" length="15.70" shape="1000.89,92.66 1000.85,93.05 998.60,97.80 994.85,100.65 989.60,101.60"/>
    </edge>
    <edge id=":junction_3_13" function="internal">
        <lane id=":junction_3_13_0" index="0" speed="6.51" length="9.03" shape="989.60,92.00 992.05,91.65 993.80,90.60 994.85,88.85 995.20,86.40"/>
    </edge>
    <edge id=":junction_3_14" function="internal">
        <lane id=":junction_3_14_0" index="0" speed="90.00" length="20.80" shape="989.60,92.00 1010.40,92.00"/>
        <lane id=":junction_3_14_1" index="1" speed="90.00" length="20.80" shape="989.60,95.20 1010.40,95.20"/>
        <lane id=":junction_3_14_2" index="2" speed="90.00" length="20.80" shape="989.60,98.40 1010.40,98.40"/>
    </edge>
    <edge id=":junction_3_17" function="internal">
        <lane id=":junction_3_17_0" index="0" speed="9.84" length="4.01" shape="989.60,98.40 993.55,99.11"/>
    </edge>
    <edge id=":junction_3_21" function="internal">
        <lane id=":junction_3_21_0" index="0" speed="9.84" length="17.98" shape="993.55,99.11 994.85,99.35 998.60,102.20 1000.85,106.95 1001.60,113.60"/>
    </edge>
    <edge id=":junction_4_0" function="internal">
        <lane id=":junction_4_0_0" index="0" speed="6.51" length="9.03" shape="995.20,-389.60 994.85,-392.05 993.80,-393.80 992.05,-394.85 989.60,-395.20"/>
    </edge>
    <edge id=":junction_4_1" function="internal">
        <lane id=":junction_4_1_0" index="0" speed="50.00" length="20.80" shape="995.20,-389.60 995.20,-410.40"/>
        <lane id=":junction_4_1_1" index="1" speed="50.00" length="20.80" shape="998.40,-389.60 998.40,-410.40"/>
    </edge>
    <edge id=":junction_4_3" function="internal">
        <lane id=":junction_4_3_0" index="0" speed="9.26" length="5.01" shape="998.40,-389.60 999.11,-394.56"/>
    </edge>
    <edge id=":junction_4_16" function="internal">
        <lane id=":junction_4_16_0" index="0" speed="9.26" length="14.34" shape="999.11,-394.56 999.15,-394.85 1001.40,-398.60 1005.15,-400.85 1010.40,-401.60"/>
    </edge>
    <edge id=":junction_4_4" function="internal">
        <lane id=":junction_4_4_0" index="0" speed="6.51" length="9.03" shape="1010.40,-395.20 1007.95,-394.85 1006.20,-393.80 1005.15,-392.05 1004.80,-389.60"/>
    </edge>
    <edge id=":junction_4_5" function="internal">
        <lane id=":junction_4_5_0" index="0" speed="50.00" length="20.80" shape="1010.40,-395.20 989.60,-395.20"/>
        <lane id=":junction_4_5_1" index="1" speed="50.00" length="20.80" shape="1010.40,-398.40 989.60,-398.40"/>
    </edge>
    <edge id=":junction_4_7" function="internal">
        <lane id=":junction_4_7_0" index="0" speed="9.26" length="5.01" shape="1010.40,-398.40 1005.44,-399.11"/>
    </edge>
    <edge id=":junction_4_17" function="internal">
        <lane id=":junction_4_17_0" index="0" speed="9.26" length="14.34" shape="1005.44,-399.11 1005.15,-399.15 1001.40,-401.40 999.15,-405.15 998.40,-410.40"/>
    </edge>
    <edge id=":junction_4_8" function="internal">
        <lane id=":junction_4_8_0" index="0" speed="6.51" length="9.03" shape="1004.80,-410.40 1005.15,-407.95 1006.20,-406.20 1007.95,-405.15 1010.40,-404.80"/>
    </edge>
    <edge id=":junction_4_9" function="internal">
        <lane id=":junction_4_9_0" index="0" speed="50.00" length="20.80" shape="1004.80,-410.40 1004.80,-389.60"/>
        <lane id=":junction_4_9_1" index="1" speed="50.00" length="20.80" shape="1001.60,-410.40 1001.60,-389.60"/>
    </edge>
    <edge id=":junction_4_11" function="internal">
        <lane id=":junction_4_11_0" index="0" speed="9.26" length="5.01" shape="1001.60,-410.40 1000.89,-405.44"/>
    </edge>
    <edge id=":junction_4_18" function="internal">
        <lane id=":junction_4_18_0" index="0" speed="9.26" length="14.34" shape="1000.89,-405.44 1000.85,-405.15 998.60,-401.40 994.85,-399.15 989.60,-398.40"/>
    </edge>
    <edge id=":junction_4_12" function="internal">
        <lane id=":junction_4_12_0" index="0" speed="6.51" length="9.03" shape="989.60,-404.80 992.05,-405.15 993.80,-406.20 994.85,-407.95 995.20,-410.40"/>
    </edge>
    <edge id=":junction_4_13" function="internal">
        <lane id=":junction_4_13_0" index="0" speed="50.00" length="20.80" shape="989.60,-404.80 1010.40,-404.80"/>
        <lane id=":junction_4_13_1" index="1" speed="50.00" length="20.80" shape="989.60,-401.60 1010.40,-401.60"/>
    </edge>
    <edge id=":junction_4_15" function="internal">
        <lane id=":junction_4_15_0" index="0" speed="9.26" length="5.01" shape="989.60,-401.60 994.56,-400.89"/>
    </edge>
    <edge id=":junction_4_19" function="internal">
        <lane id=":junction_4_19_0" index="0" speed="9.26" length="14.34" shape="994.56,-400.89 994.85,-400.85 998.60,-398.60 1000.85,-394.85 1001.60,-389.60"/>
    </edge>
    <edge id=":junction_5_0" function="internal">
        <lane id=":junction_5_0_0" index="0" speed="6.51" length="9.03" shape="-4.80,-389.60 -5.15,-392.05 -6.20,-393.80 -7.95,-394.85 -10.40,-395.20"/>
    </edge>
    <edge id=":junction_5_1" function="internal">
        <lane id=":junction_5_1_0" index="0" speed="50.00" length="20.80" shape="-4.80,-389.60 -4.80,-410.40"/>
        <lane id=":junction_5_1_1" index="1" speed="50.00" length="20.80" shape="-1.60,-389.60 -1.60,-410.40"/>
    </edge>
    <edge id=":junction_5_3" function="internal">
        <lane id=":junction_5_3_0" index="0" speed="9.26" length="5.01" shape="-1.60,-389.60 -0.89,-394.56"/>
    </edge>
    <edge id=":junction_5_16" function="internal">
        <lane id=":junction_5_16_0" index="0" speed="9.26" length="14.34" shape="-0.89,-394.56 -0.85,-394.85 1.40,-398.60 5.15,-400.85 10.40,-401.60"/>
    </edge>
    <edge id=":junction_5_4" function="internal">
        <lane id=":junction_5_4_0" index="0" speed="6.51" length="9.03" shape="10.40,-395.20 7.95,-394.85 6.20,-393.80 5.15,-392.05 4.80,-389.60"/>
    </edge>
    <edge id=":junction_5_5" function="internal">
        <lane id=":junction_5_5_0" index="0" speed="50.00" length="20.80" shape="10.40,-395.20 -10.40,-395.20"/>
        <lane id=":junction_5_5_1" index="1" speed="50.00" length="20.80" shape="10.40,-398.40 -10.40,-398.40"/>
    </edge>
    <edge id=":junction_5_7" function="internal">
        <lane id=":junction_5_7_0" index="0" speed="9.26" length="5.01" shape="10.40,-398.40 5.44,-399.11"/>
    </edge>
    <edge id=":junction_5_17" function="internal">
        <lane id=":junction_5_17_0" index="0" speed="9.26" length="14.34" shape="5.44,-399.11 5.15,-399.15 1.40,-401.40 -0.85,-405.15 -1.60,-410.40"/>
    </edge>
    <edge id=":junction_5_8" function="internal">
        <lane id=":junction_5_8_0" index="0" speed="6.51" length="9.03" shape="4.80,-410.40 5.15,-407.95 6.20,-406.20 7.95,-405.15 10.40,-404.80"/>
    </edge>
    <edge id=":junction_5_9" function="internal">
        <lane id=":junction_5_9_0" index="0" speed="50.00" length="20.80" shape="4.80,-410.40 4.80,-389.60"/>
        <lane id=":junction_5_9_1" index="1" speed="50.00" length="20.80" shape="1.60,-410.40 1.60,-389.60"/>
    </edge>
    <edge id=":junction_5_11" function="internal">
        <lane id=":junction_5_11_0" index="0" speed="9.26" length="5.01" shape="1.60,-410.40 0.89,-405.44"/>
    </edge>
    <edge id=":junction_5_18" function="internal">
        <lane id=":junction_5_18_0" index="0" speed="9.26" length="14.34" shape="0.89,-405.44 0.85,-405.15 -1.40,-401.40 -5.15,-399.15 -10.40,-398.40"/>
    </edge>
    <edge id=":junction_5_12" function="internal">
        <lane id=":junction_5_12_0" index="0" speed="6.51" length="9.03" shape="-10.40,-404.80 -7.95,-405.15 -6.20,-406.20 -5.15,-407.95 -4.80,-410.40"/>
    </edge>
    <edge id=":junction_5_13" function="internal">
        <lane id=":junction_5_13_0" index="0" speed="50.00" length="20.80" shape="-10.40,-404.80 10.40,-404.80"/>
        <lane id=":junction_5_13_1" index="1" speed="50.00" length="20.80" shape="-10.40,-401.60 10.40,-401.60"/>
    </edge>
    <edge id=":junction_5_15" function="internal">
        <lane id=":junction_5_15_0" index="0" speed="9.26" length="5.01" shape="-10.40,-401.60 -5.44,-400.89"/>
    </edge>
    <edge id=":junction_5_19" function="internal">
        <lane id=":junction_5_19_0" index="0" speed="9.26" length="14.34" shape="-5.44,-400.89 -5.15,-400.85 -1.40,-398.60 0.85,-394.85 1.60,-389.60"/>
    </edge>
    <edge id=":junction_6_0" function="internal">
        <lane id=":junction_6_0_0" index="0" speed="6.51" length="9.03" shape="-4.80,113.60 -5.15,111.15 -6.20,109.40 -7.95,108.35 -10.40,108.00"/>
    </edge>
    <edge id=":junction_6_1" function="internal">
        <lane id=":junction_6_1_0" index="0" speed="50.00" length="27.20" shape="-4.80,113.60 -4.80,86.40"/>
        <lane id=":junction_6_1_1" index="1" speed="50.00" length="27.20" shape="-1.60,113.60 -1.60,86.40"/>
    </edge>
    <edge id=":junction_6_3" function="internal">
        <lane id=":junction_6_3_0" index="0" speed="9.84" length="6.30" shape="-1.60,113.60 -0.89,107.34"/>
    </edge>
    <edge id=":junction_6_18" function="internal">
        <lane id=":junction_6_18_0" index="0" speed="9.84" length="15.70" shape="-0.89,107.34 -0.85,106.95 1.40,102.20 5.15,99.35 10.40,98.40"/>
    </edge>
    <edge id=":junction_6_4" function="internal">
        <lane id=":junction_6_4_0" index="0" speed="6.51" length="9.03" shape="10.40,108.00 7.95,108.35 6.20,109.40 5.15,111.15 4.80,113.60"/>
    </edge>
    <edge id=":junction_6_5" function="internal">
        <lane id=":junction_6_5_0" index="0" speed="90.00" length="20.80" shape="10.40,108.00 -10.40,108.00"/>
        <lane id=":junction_6_5_1" index="1" speed="90.00" length="20.80" shape="10.40,104.80 -10.40,104.80"/>
        <lane id=":junction_6_5_2" index="2" speed="90.00" length="20.80" shape="10.40,101.60 -10.40,101.60"/>
    </edge>
    <edge id=":junction_6_8" function="internal">
        <lane id=":junction_6_8_0" index="0" speed="9.84" length="4.01" shape="10.40,101.60 6.45,100.89"/>
    </edge>
    <edge id=":junction_6_19" function="internal">
        <lane id=":junction_6_19_0" index="0" speed="9.84" length="17.98" shape="6.45,100.89 5.15,100.65 1.40,97.80 -0.85,93.05 -1.60,86.40"/>
    </edge>
    <edge id=":junction_6_9" function="internal">
        <lane id=":junction_6_9_0" index="0" speed="6.51" length="9.03" shape="4.80,86.40 5.15,88.85 6.20,90.60 7.95,91.65 10.40,92.00"/>
    </edge>
    <edge id=":junction_6_10" function="internal">
        <lane id=":junction_6_10_0" index="0" speed="50.00" length="27.20" shape="4.80,86.40 4.80,113.60"/>
        <lane id=":junction_6_10_1" index="1" speed="50.00" length="27.20" shape="1.60,86.40 1.60,113.60"/>
    </edge>
    <edge id=":junction_6_12" function="internal">
        <lane id=":junction_6_12_0" index="0" speed="9.84" length="6.30" shape="1.60,86.40 0.89,92.66"/>
    </edge>
    <edge id=":junction_6_20" function="internal">
        <lane id=":junction_6_20_0" index="0" speed="9.84" length="15.70" shape="0.89,92.66 0.85,93.05 -1.40,97.80 -5.15,100.65 -10.40,101.60"/>
    </edge>
    <edge id=":junction_6_13" function="internal">
        <lane id=":junction_6_13_0" index="0" speed="6.51" length="9.03" shape="-10.40,92.00 -7.95,91.65 -6.20,90.60 -5.15,88.85 -4.80,86.40"/>
    </edge>
    <edge id=":junction_6_14" function="internal">
        <lane id=":junction_6_14_0" index="0" speed="90.00" length="20.80" shape="-10.40,92.00 10.40,92.00"/>
        <lane id=":junction_6_14_1" index="1" speed="90.00" length="20.80" shape="-10.40,95.20 10.40,95.20"/>
        <lane id=":junction_6_14_2" index="2" speed="90.00" length="20.80" shape="-10.40,98.40 10.40,98.40"/>
    </edge>
    <edge id=":junction_6_17" function="internal">
        <lane id=":junction_6_17_0" index="0" speed="9.84" length="4.01" shape="-10.40,98.40 -6.45,99.11"/>
    </edge>
    <edge id=":junction_6_21" function="internal">
        <lane id=":junction_6_21_0" index="0" speed="9.84" length="17.98" shape="-6.45,99.11 -5.15,99.35 -1.40,102.20 0.85,106.95 1.60,113.60"/>
    </edge>

    <edge id="end_A_end_B" from="junction_1" to="end_B" priority="-1">
        <lane id="end_A_end_B_0" index="0" speed="50.00" length="289.60" shape="4.80,610.40 4.80,900.00"/>
        <lane id="end_A_end_B_1" index="1" speed="50.00" length="289.60" shape="1.60,610.40 1.60,900.00"/>
    </edge>
    <edge id="end_A_junction_1" from="end_A" to="junction_1" priority="-1">
        <lane id="end_A_junction_1_0" index="0" speed="50.00" length="289.60" shape="-300.00,595.20 -10.40,595.20"/>
        <lane id="end_A_junction_1_1" index="1" speed="50.00" length="289.60" shape="-300.00,598.40 -10.40,598.40"/>
    </edge>
    <edge id="end_B_junction_1" from="end_B" to="junction_1" priority="-1">
        <lane id="end_B_junction_1_0" index="0" speed="50.00" length="289.60" shape="-4.80,900.00 -4.80,610.40"/>
        <lane id="end_B_junction_1_1" index="1" speed="50.00" length="289.60" shape="-1.60,900.00 -1.60,610.40"/>
    </edge>
    <edge id="end_C_junction_2" from="end_C" to="junction_2" priority="-1">
        <lane id="end_C_junction_2_0" index="0" speed="50.00" length="289.60" shape="995.20,900.00 995.20,610.40"/>
        <lane id="end_C_junction_2_1" index="1" speed="50.00" length="289.60" shape="998.40,900.00 998.40,610.40"/>
    </edge>
    <edge id="end_D_junction_2" from="end_D" to="junction_2" priority="-1">
        <lane id="end_D_junction_2_0" index="0" speed="50.00" length="289.60" shape="1300.00,604.80 1010.40,604.80"/>
        <lane id="end_D_junction_2_1" index="1" speed="50.00" length="289.60" shape="1300.00,601.60 1010.40,601.60"/>
    </edge>
    <edge id="end_E_junction_3" from="end_E" to="junction_3" priority="-1">
        <lane id="end_E_junction_3_0" index="0" speed="90.00" length="289.60" shape="1300.00,108.00 1010.40,108.00"/>
        <lane id="end_E_junction_3_1" index="1" speed="90.00" length="289.60" shape="1300.00,104.80 1010.40,104.80"/>
        <lane id="end_E_junction_3_2" index="2" speed="90.00" length="289.60" shape="1300.00,101.60 1010.40,101.60"/>
    </edge>
    <edge id="end_F_junction_4" from="end_F" to="junction_4" priority="-1">
        <lane id="end_F_junction_4_0" index="0" speed="50.00" length="289.60" shape="1300.00,-395.20 1010.40,-395.20"/>
        <lane id="end_F_junction_4_1" index="1" speed="50.00" length="289.60" shape="1300.00,-398.40 1010.40,-398.40"/>
    </edge>
    <edge id="end_G_junction_4" from="end_G" to="junction_4" priority="-1">
        <lane id="end_G_junction_4_0" index="0" speed="50.00" length="289.60" shape="1004.80,-700.00 1004.80,-410.40"/>
        <lane id="end_G_junction_4_1" index="1" speed="50.00" length="289.60" shape="1001.60,-700.00 1001.60,-410.40"/>
    </edge>
    <edge id="end_H_junction_5" from="end_H" to="junction_5" priority="-1">
        <lane id="end_H_junction_5_0" index="0" speed="50.00" length="289.60" shape="4.80,-700.00 4.80,-410.40"/>
        <lane id="end_H_junction_5_1" index="1" speed="50.00" length="289.60" shape="1.60,-700.00 1.60,-410.40"/>
    </edge>
    <edge id="end_I_junction_5" from="end_I" to="junction_5" priority="-1">
        <lane id="end_I_junction_5_0" index="0" speed="50.00" length="289.60" shape="-300.00,-404.80 -10.40,-404.80"/>
        <lane id="end_I_junction_5_1" index="1" speed="50.00" length="289.60" shape="-300.00,-401.60 -10.40,-401.60"/>
    </edge>
    <edge id="end_J_junction_6" from="end_J" to="junction_6" priority="-1">
        <lane id="end_J_junction_6_0" index="0" speed="90.00" length="289.60" shape="-300.00,92.00 -10.40,92.00"/>
        <lane id="end_J_junction_6_1" index="1" speed="90.00" length="289.60" shape="-300.00,95.20 -10.40,95.20"/>
        <lane id="end_J_junction_6_2" index="2" speed="90.00" length="289.60" shape="-300.00,98.40 -10.40,98.40"/>
    </edge>
    <edge id="junction_1_end_A" from="junction_1" to="end_A" priority="-1">
        <lane id="junction_1_end_A_0" index="0" speed="50.00" length="289.60" shape="-10.40,604.80 -300.00,604.80"/>
        <lane id="junction_1_end_A_1" index="1" speed="50.00" length="289.60" shape="-10.40,601.60 -300.00,601.60"/>
    </edge>
    <edge id="junction_1_junction_2" from="junction_1" to="junction_2" priority="-1">
        <lane id="junction_1_junction_2_0" index="0" speed="50.00" length="979.20" shape="10.40,595.20 989.60,595.20"/>
        <lane id="junction_1_junction_2_1" index="1" speed="50.00" length="979.20" shape="10.40,598.40 989.60,598.40"/>
    </edge>
    <edge id="junction_1_junction_6" from="junction_1" to="junction_6" priority="-1">
        <lane id="junction_1_junction_6_0" index="0" speed="50.00" length="476.00" shape="-4.80,589.60 -4.80,113.60"/>
        <lane id="junction_1_junction_6_1" index="1" speed="50.00" length="476.00" shape="-1.60,589.60 -1.60,113.60"/>
    </edge>
    <edge id="junction_2_end_C" from="junction_2" to="end_C" priority="-1">
        <lane id="junction_2_end_C_0" index="0" speed="50.00" length="289.60" shape="1004.80,610.40 1004.80,900.00"/>
        <lane id="junction_2_end_C_1" index="1" speed="50.00" length="289.60" shape="1001.60,610.40 1001.60,900.00"/>
    </edge>
    <edge id="junction_2_end_D" from="junction_2" to="end_D" priority="-1">
        <lane id="junction_2_end_D_0" index="0" speed="50.00" length="289.60" shape="1010.40,595.20 1300.00,595.20"/>
        <lane id="junction_2_end_D_1" index="1" speed="50.00" length="289.60" shape="1010.40,598.40 1300.00,598.40"/>
    </edge>
    <edge id="junction_2_junction_1" from="junction_2" to="junction_1" priority="-1">
        <lane id="junction_2_junction_1_0" index="0" speed="50.00" length="979.20" shape="989.60,604.80 10.40,604.80"/>
        <lane id="junction_2_junction_1_1" index="1" speed="50.00" length="979.20" shape="989.60,601.60 10.40,601.60"/>
    </edge>
    <edge id="junction_2_junction_3" from="junction_2" to="junction_3" priority="-1">
        <lane id="junction_2_junction_3_0" index="0" speed="50.00" length="476.00" shape="995.20,589.60 995.20,113.60"/>
        <lane id="junction_2_junction_3_1" index="1" speed="50.00" length="476.00" shape="998.40,589.60 998.40,113.60"/>
    </edge>
    <edge id="junction_3_end_E" from="junction_3" to="end_E" priority="-1">
        <lane id="junction_3_end_E_0" index="0" speed="90.00" length="289.60" shape="1010.40,92.00 1300.00,92.00"/>
        <lane id="junction_3_end_E_1" index="1" speed="90.00" length="289.60" shape="1010.40,95.20 1300.00,95.20"/>