<?xml version="1.0" encoding="UTF-8"?>

<!-- generated on 2025-03-15 18:38:15 by Eclipse SUMO netedit Version 1.22.0
-->

<routes xmlns:xsi="http://www.w3.org/2001/XMLSchema-instance" xsi:noNamespaceSchemaLocation="http://sumo.dlr.de/xsd/routes_file.xsd">
    <!-- Routes -->
    <route id="r_A_B" edges="end_A_junction_1 end_A_end_B"/>
    <route id="r_A_C" edges="end_A_junction_1 junction_1_junction_2 junction_2_end_C"/>
    <route id="r_A_D" edges="end_A_junction_1 junction_1_junction_2 junction_2_end_D"/>
    <route id="r_A_E" edges="end_A_junction_1 junction_1_junction_6 junction_6_junction_3 junction_3_end_E"/>
    <route id="r_A_F" edges="end_A_junction_1 junction_1_junction_6 junction_6_junction_3 junction_3_junction_4 junction_4_end_F"/>
    <route id="r_A_G" edges="end_A_junction_1 junction_1_junction_6 junction_6_junction_3 junction_3_junction_4 junction_4_end_G"/>
    <route id="r_A_H" edges="end_A_junction_1 junction_1_junction_6 junction_6_junction_5 junction_5_end_H"/>
    <route id="r_A_I" edges="end_A_junction_1 junction_1_junction_6 junction_6_junction_5 junction_5_end_I"/>
    <route id="r_A_J" edges="end_A_junction_1 junction_1_junction_6 junction_6_end_J"/>
    <route id="r_B_A" edges="end_B_junction_1 junction_1_end_A"/>
    <route id="r_B_C" edges="end_B_junction_1 junction_1_junction_2 junction_2_end_C"/>
    <route id="r_B_D" edges="end_B_junction_1 junction_1_junction_2 junction_2_end_D"/>
    <route id="r_B_E" edges="end_B_junction_1 junction_1_junction_6 junction_6_junction_3 junction_3_end_E"/>
    <route id="r_B_F" edges="end_B_junction_1 junction_1_junction_6 junction_6_junction_3 junction_3_junction_4 junction_4_end_F"/>
    <route id="r_B_G" edges="end_B_junction_1 junction_1_junction_6 junction_6_junction_3 junction_3_junction_4 junction_4_end_G"/>
    <route id="r_B_H" edges="end_B_junction_1 junction_1_junction_6 junction_6_junction_5 junction_5_end_H"/>
    <route id="r_B_I" edges="end_B_junction_1 junction_1_junction_6 junction_6_junction_5 junction_5_end_I"/>
    <route id="r_B_J" edges="end_B_junction_1 junction_1_junction_6 junction_6_end_J"/>
    <route id="r_C_A" edges="end_C_junction_2 junction_2_junction_1 junction_1_end_A"/>
    <route id="r_C_B" edges="end_C_junction_2 junction_2_junction_1 end_A_end_B"/>
    <route id="r_C_D" edges="end_C_junction_2 junction_2_end_D"/>
    <route id="r_C_E" edges="end_C_junction_2 junction_2_junction_3 junction_3_end_E"/>
    <route id="r_C_F" edges="end_C_junction_2 junction_2_junction_3 junction_3_junction_4 junction_4_end_F"/>
    <route id="r_C_G" edges="end_C_junction_2 junction_2_junction_3 junction_3_junction_4 junction_4_end_G"/>
    <route id="r_C_H" edges="end_C_junction_2 junction_2_junction_3 junction_3_junction_6 junction_6_junction_5 junction_5_end_H"/>
    <route id="r_C_I" edges="end_C_junction_2 junction_2_junction_3 junction_3_junction_6 junction_6_junction_5 junction_5_end_I"/>
    <route id="r_C_J" edges="end_C_junction_2 junction_2_junction_3 junction_3_junction_6 junction_6_end_J"/>
    <route id="r_D_A" edges="end_D_junction_2 junction_2_junction_1 junction_1_end_A"/>
    <route id="r_D_B" edges="end_D_junction_2 junction_2_junction_1 end_A_end_B"/>
    <route id="r_D_C" edges="end_D_junction_2 junction_2_end_C"/>
    <route id="r_D_E" edges="end_D_junction_2 junction_2_junction_3 junction_3_end_E"/>
    <route id="r_D_F" edges="end_D_junction_2 junction_2_junction_3 junction_3_junction_4 junction_4_end_F"/>
    <route id="r_D_G" edges="end_D_junction_2 junction_2_junction_3 junction_3_junction_4 junction_4_end_G"/>
    <route id="r_D_H" edges="end_D_junction_2 junction_2_junction_3 junction_3_junction_6 junction_6_junction_5 junction_5_end_H"/>
    <route id="r_D_I" edges="end_D_junction_2 junction_2_junction_3 junction_3_junction_6 junction_6_junction_5 junction_5_end_I"/>
    <route id="r_D_J" edges="end_D_junction_2 junction_2_junction_3 junction_3_junction_6 junction_6_end_J"/>
    <route id="r_E_A" edges="end_E_junction_3 junction_3_junction_6 junction_6_junction_1 junction_1_end_A"/>
    <route id="r_E_B" edges="end_E_junction_3 junction_3_junction_6 junction_6_junction_1 end_A_end_B"/>
    <route id="r_E_C" edges="end_E_junction_3 junction_3_junction_2 junction_2_end_C"/>
    <route id="r_E_D" edges="end_E_junction_3 junction_3_junction_2 junction_2_end_D"/>
    <route id="r_E_F" edges="end_E_junction_3 junction_3_junction_4 junction_4_end_F"/>
    <route id="r_E_G" edges="end_E_junction_3 junction_3_junction_4 junction_4_end_G"/>
    <route id="r_E_H" edges="end_E_junction_3 junction_3_junction_6 junction_6_junction_5 junction_5_end_H"/>
    <route id="r_E_I" edges="end_E_junction_3 junction_3_junction_6 junction_6_junction_5 junction_5_end_I"/>
    <route id="r_E_J" edges="end_E_junction_3 junction_3_junction_6 junction_6_end_J"/>
    <route id="r_F_A" edges="end_F_junction_4 junction_4_junction_3 junction_3_junction_6 junction_6_junction_1 junction_1_end_A"/>
    <route id="r_F_B" edges="end_F_junction_4 junction_4_junction_3 junction_3_junction_6 junction_6_junction_1 end_A_end_B"/>
    <route id="r_F_C" edges="end_F_junction_4 junction_4_junction_3 junction_3_junction_2 junction_2_end_C"/>
    <route id="r_F_D" edges="end_F_junction_4 junction_4_junction_3 junction_3_junction_2 junction_2_end_D"/>
    <route id="r_F_E" edges="end_F_junction_4 junction_4_junction_3 junction_3_end_E"/>
    <route id="r_F_G" edges="end_F_junction_4 junction_4_end_G"/>
    <route id="r_F_H" edges="end_F_junction_4 junction_4_junction_5 junction_5_end_H"/>
    <route id="r_F_I" edges="end_F_junction_4 junction_4_junction_5 junction_5_end_I"/>
    <route id="r_F_J" edges="end_F_junction_4 junction_4_junction_3 junction_3_junction_6 junction_6_end_J"/>
    <route id="r_G_A" edges="end_G_junction_4 junction_4_junction_3 junction_3_junction_6 junction_6_junction_1 junction_1_end_A"/>
    <route id="r_G_B" edges="end_G_junction_4 junction_4_junction_3 junction_3_junction_6 junction_6_junction_1 end_A_end_B"/>
    <route id="r_G_C" edges="end_G_junction_4 junction_4_junction_3 junction_3_junction_2 junction_2_end_C"/>
    <route id="r_G_D" edges="end_G_junction_4 junction_4_junction_3 junction_3_junction_2 junction_2_end_D"/>
    <route id="r_G_E" edges="end_G_junction_4 junction_4_junction_3 junction_3_end_E"/>
    <route id="r_G_F" edges="end_G_junction_4 junction_4_end_F"/>
    <route id="r_G_H" edges="end_G_junction_4 junction_4_junction_5 junction_5_end_H"/>
    <route id="r_G_I" edges="end_G_junction_4 junction_4_junction_5 junction_5_end_I"/>
    <route id="r_G_J" edges="end_G_junction_4 junction_4_junction_3 junction_3_junction_6 junction_6_end_J"/>
    <route id="r_H_A" edges="end_H_junction_5 junction_5_junction_6 junction_6_junction_1 junction_1_end_A"/>
    <route id="r_H_B" edges="end_H_junction_5 junction_5_junction_6 junction_6_junction_1 end_A_end_B"/>
    <route id="r_H_C" edges="end_H_junction_5 junction_5_junction_6 junction_6_junction_3 junction_3_junction_2 junction_2_end_C"/>
    <route id="r_H_D" edges="end_H_junction_5 junction_5_junction_6 junction_6_junction_3 junction_3_junction_2 junction_2_end_D"/>
    <route id="r_H_E" edges="end_H_junction_5 junction_5_junction_6 junction_6_junction_3 junction_3_end_E"/>
    <route id="r_H_F" edges="end_H_junction_5 junction_5_junction_4 junction_4_end_F"/>
    <route id="r_H_G" edges="end_H_junction_5 junction_5_junction_4 junction_4_end_G"/>
    <route id="r_H_I" edges="end_H_junction_5 junction_5_end_I"/>
    <route id="r_H_J" edges="end_H_junction_5 junction_5_junction_6 junction_6_end_J"/>
    <route id="r_I_A" edges="end_I_junction_5 junction_5_junction_6 junction_6_junction_1 junction_1_end_A"/>
    <route id="r_I_B" edges="end_I_junction_5 junction_5_junction_6 junction_6_junction_1 end_A_end_B"/>
    <route id="r_I_C" edges="end_I_junction_5 junction_5_junction_6 junction_6_junction_3 junction_3_junction_2 junction_2_end_C"/>
    <route id="r_I_D" edges="end_I_junction_5 junction_5_junction_6 junction_6_junction_3 junction_3_junction_2 junction_2_end_D"/>
    <route id="r_I_E" edges="end_I_junction_5 junction_5_junction_6 junction_6_junction_3 junction_3_end_E"/>
    <route id="r_I_F" edges="end_I_junction_5 junction_5_junction_4 junction_4_end_F"/>
    <route id="r_I_G" edges="end_I_junction_5 junction_5_junction_4 junction_4_end_G"/>
    <route id="r_I_H" edges="end_I_junction_5 junction_5_end_H"/>
    <route id="r_I_J" edges="end_I_junction_5 junction_5_junction_6 junction_6_end_J"/>
    <route id="r_J_A" edges="end_J_junction_6 junction_6_junction_1 junction_1_end_A"/>
    <route id="r_J_B" edges="end_J_junction_6 junction_6_junction_1 end_A_end_B"/>
    <route id="r_J_C" edges="end_J_junction_6 junction_6_junction_3 junction_3_junction_2 junction_2_end_C"/>
    <route id="r_J_D" edges="end_J_junction_6 junction_6_junction_3 junction_3_junction_2 junction_2_end_D"/>
    <route id="r_J_E" edges="end_J_junction_6 junction_6_junction_3 junction_3_end_E"/>
    <route id="r_J_F" edges="end_J_junction_6 junction_6_junction_3 junction_3_junction_4 junction_4_end_F"/>
    <route id="r_J_G" edges="end_J_junction_6 junction_6_junction_3 junction_3_junction_4 junction_4_end_G"/>
    <route id="r_J_H" edges="end_J_junction_6 junction_6_junction_5 junction_5_end_H"/>
    <route id="r_J_I" edges="end_J_junction_6 junction_6_junction_5 junction_5_end_I"/>


    <!-- Vehicles, persons and containers (sorted by depart) -->
    <flow id="f_1" begin="0.00" route="r_J_E" end="1440.00" probability="1"/>
    <flow id="f_2" begin="0.00" route="r_E_J" end="1440.00" probability="1"/>

    <flow id="f_3" begin="0.00" route="r_A_B" end="1440.00" probability="0.1"/>
    <flow id="f_4" begin="0.00" route="r_A_C" end="1440.00" probability="0.1"/>
    <flow id="f_5" begin="0.00" route="r_A_D" end="1440.00" probability="0.1"/>
    <flow id="f_6" begin="0.00" route="r_A_E" end="1440.00" probability="0.1"/>
    <flow id="f_7" begin="0.00" route="r_A_F" end="1440.00" probability="0.1"/>
    <flow id="f_8" begin="0.00" route="r_A_G" end="1440.00" probability="0.1"/>
    <flow id="f_9" begin="0.00" route="r_A_H" end="1440.00" probability="0.1"/>
    <flow id="f_10" begin="0.00" route="r_A_I" end="1440.00" probability="0.1"/>
    <flow id="f_11" begin="0.00" route="r_A_J" end="1440.00" probability="0.1"/>

    <flow id="f_12" begin="0.00" route="r_B_A" end="1440.00" probability="0.1"/>
    <flow id="f_13" begin="0.00" route="r_B_C" end="1440.00" probability="0.1"/>
    <flow id="f_14" begin="0.00" route="r_B_D" end="1440.00" probability="0.1"/>
    <flow id="f_15" begin="0.00" route="r_B_E" end="1440.00" probability="0.1"/>
    <flow id="f_16" begin="0.00" route="r_B_F" end="1440.00" probability="0.1"/>
    <flow id="f_17" begin="0.00" route="r_B_G" end="1440.00" probability="0.1"/>
    <flow id="f_18" begin="0.00" route="r_B_H" end="1440.00" probability="0.1"/>
    <flow id="f_19" begin="0.00" route="r_B_I" end="1440.00" probability="0.1"/>
    <flow id="f_20" begin="0.00" route="r_B_J" end="1440.00" probability="0.1"/>

    <flow id="f_21" begin="0.00" route="r_C_A" end="1440.00" probability="0.1"/>
    <flow id="f_22" begin="0.00" route="r_C_B" end="1440.00" probability="0.1"/>
    <flow id="f_23" begin="0.00" route="r_C_D" end="1440.00" probability="0.1"/>
    <flow id="f_24" begin="0.00" route="r_C_E" end="1440.00" probability="0.1"/>
    <flow id="f_25" begin="0.00" route="r_C_F" end="1440.00" probability="0.1"/>
    <flow id="f_26" begin="0.00" route="r_C_G" end="1440.00" probability="0.1"/>
    <flow id="f_27" begin="0.00" route="r_C_H" end="1440.00" probability="0.1"/>
    <flow id="f_28" begin="0.00" route="r_C_I" end="1440.00" probability="0.1"/>
    <flow id="f_29" begin="0.00" route="r_C_J" end="1440.00" probability="0.1"/>

    <flow id="f_30" begin="0.00" route="r_D_A" end="1440.00" probability="0.1"/>
    <flow id="f_31" begin="0.00" route="r_D_B" end="1440.00" probability="0.1"/>
    <flow id="f_32" begin="0.00" route="r_D_C" end="1440.00" probability="0.1"/>
    <flow id="f_33" begin="0.00" route="r_D_E" end="1440.00" probability="0.1"/>
    <flow id="f_34" begin="0.00" route="r_D_F" end="1440.00" probability="0.1"/>
    <flow id="f_35" begin="0.00" route="r_D_G" end="1440.00" probability="0.1"/>
    <flow id="f_36" begin="0.00" route="r_D_H" end="1440.00" probability="0.1"/>
    <flow id="f_37" begin="0.00" route="r_D_I" end="1440.00" probability="0.1"/>
    <flow id="f_38" begin="0.00" route="r_D_J" end="1440.00" probability="0.1"/>

    <flow id="f_39" begin="0.00" route="r_E_A" end="1440.00" probability="0.1"/>
    <flow id="f_40" begin="0.00" route="r_E_B" end="1440.00" probability="0.1"/>
    <flow id="f_41" begin="0.00" route="r_E_C" end="1440.00" probability="0.1"/>
    <flow id="f_42" begin="0.00" route="r_E_D" end="1440.00" probability="0.1"/>
    <flow id="f_43" begin="0.00" route="r_E_F" end="1440.00" probability="0.1"/>
    <flow id="f_44" begin="0.00" route="r_E_G" end="1440.00" probability="0.1"/>
    <flow id="f_45" begin="0.00" route="r_E_H" end="1440.00" probability="0.1"/>
    <flow id="f_46" begin="0.00" route="r_E_I" end="1440.00" probability="0.1"/>

    <flow id="f_47" begin="0.00" route="r_F_A" end="1440.00" probability="0.1"/>
    <flow id="f_48" begin="0.00" route="r_F_B" end="1440.00" probability="0.1"/>
    <flow id="f_49" begin="0.00" route="r_F_C" end="1440.00" probability="0.1"/>
    <flow id="f_50" begin="0.00" route="r_F_D" end="1440.00" probability="0.1"/>
    <flow id="f_51" begin="0.00" route="r_F_E" end="1440.00" probability="0.1"/>
    <flow id="f_52" begin="0.00" route="r_F_G" end="1440.00" probability="0.1"/>
    <flow id="f_53" begin="0.00" route="r_F_H" end="1440.00" probability="0.1"/>
    <flow id="f_54" begin="0.00" route="r_F_I" end="1440.00" probability="0.1"/>
    <flow id="f_55" begin="0.00" route="r_F_J" end="1440.00" probability="0.1"/>

    <flow id="f_56" begin="0.00" route="r_G_A" end="1440.00" probability="0.1"/>
    <flow id="f_57" begin="0.00" route="r_G_B" end="1440.00" probability="0.1"/>
    <flow id="f_58" begin="0.00" route="r_G_C" end="1440.00" probability="0.1"/>
    <flow id="f_59" begin="0.00" route="r_G_D" end="1440.00" probability="0.1"/>
    <flow id="f_60" begin="0.00" route="r_G_E" end="1440.00" probability="0.1"/>
    <flow id="f_61" begin="0.00" route="r_G_F" end="1440.00" probability="0.1"/>
    <flow id="f_62" begin="0.00" route="r_G_H" end="1440.00" probability="0.1"/>
    <flow id="f_63" begin="0.00" route="r_G_I" end="1440.00" probability="0.1"/>
    <flow id="f_64" begin="0.00" route="r_G_J" end="1440.00" probability="0.1"/>

    <flow id="f_65" begin="0.00" route="r_H_A" end="1440.00" probability="0.1"/>
    <flow id="f_66" begin="0.00" route="r_H_B" end="1440.00" probability="0.1"/>
    <flow id="f_67" begin="0.00" route="r_H_C" end="1440.00" probability="0.1"/>
    <flow id="f_68" begin="0.00" route="r_H_D" end="1440.00" probability="0.1"/>
    <flow id="f_69" begin="0.00" route="r_H_E" end="1440.00" probability="0.1"/>
    <flow id="f_70" begin="0.00" route="r_H_F" end="1440.00" probability="0.1"/>
    <flow id="f_71" begin="0.00" route="r_H_G" end="1440.00" probability="0.1"/>
    <flow id="f_72" begin="0.00" route="r_H_I" end="1440.00" probability="0.1"/>
    <flow id="f_73" begin="0.00" route="r_H_J" end="1440.00" probability="0.1"/>

    <flow id="f_74" begin="0.00" route="r_I_A" end="1440.00" probability="0.1"/>
    <flow id="f_75" begin="0.00" route="r_I_B" end="1440.00" probability="0.1"/>
    <flow id="f_76" begin="0.00" route="r_I_C" end="1440.00" probability="0.1"/>
    <flow id="f_77" begin="0.00" route="r_I_D" end="1440.00" probability="0.1"/>
    <flow id="f_78" begin="0.00" route="r_I_E" end="1440.00" probability="0.1"/>
    <flow id="f_79" begin="0.00" route="r_I_F" end="1440.00" probability="0.1"/>
    <flow id="f_80" begin="0.00" route="r_I_G" end="1440.00" probability="0.1"/>
    <flow id="f_81" begin="0.00" route="r_I_H" end="1440.00" probability="0.1"/>
    <flow id="f_82" begin="0.00" route="r_I_J" end="1440.00" probability="0.1"/>

    <flow id="f_83" begin="0.00" route="r_J_A" end="1440.00" probability="0.1"/>
    <flow id="f_84" begin="0.00" route="r_J_B" end="1440.00" probability="0.1"/>
    <flow id="f_85" begin="0.00" route="r_J_C" end="1440.00" probability="0.1"/>
    <flow id="f_86" begin="0.00" route="r_J_D" end="1440.00" probability="0.1"/>
    <flow id="f_88" begin="0.00" route="r_J_F" end="1440.00" probability="0.1"/>
    <flow id="f_89" begin="0.00" route="r_J_G" end="1440.00" probability="0.1"/>
    <flow id="f_90" begin="0.00" route="r_J_H" end="1440.00" probability="0.1"/>
    <flow id="f_91" begin="0.00" route="r_J_I" end="1440.00" probability="0.1"/>


</routes>
